<?xml version="1.0" encoding="UTF-8"?>

<!-- generated on 2024-12-10 23:16:19.728892 by osmWebWizard.py v1_21_0+0000-d7b3b481c43
<configuration>
    <net-file value="C:\Users\Kisha\Sumo\2024-12-10-23-16-10\osm.net.xml.gz"/>
    <output-trip-file value="C:\Users\Kisha\Sumo\2024-12-10-23-16-10\osm.motorcycle.trips.xml"/>
    <route-file value="C:\Users\Kisha\Sumo\2024-12-10-23-16-10\osm.motorcycle.rou.xml"/>
    <prefix value="motorcycle"/>
    <trip-attributes value="departLane=&quot;best&quot;"/>
    <fringe-start-attributes value="departSpeed=&quot;max&quot;"/>
    <vehicle-class value="motorcycle"/>
    <fringe-factor value="2"/>
    <vclass value="motorcycle"/>
    <via-edge-types value="highway.motorway,highway.motorway_link,highway.trunk_link,highway.primary_link,highway.secondary_link,highway.tertiary_link"/>
    <max-distance value="1200.0"/>
    <remove-loops value="True"/>
    <validate value="True"/>
    <insertion-density value="4.0"/>
</configuration>
-->

<!-- generated on 2024-12-10 23:16:19 by Eclipse SUMO duarouter Version 1.21.0
<duarouterConfiguration xmlns:xsi="http://www.w3.org/2001/XMLSchema-instance" xsi:noNamespaceSchemaLocation="http://sumo.dlr.de/xsd/duarouterConfiguration.xsd">

    <input>
        <net-file value="C:\Users\Kisha\Sumo\2024-12-10-23-16-10\osm.net.xml.gz"/>
        <route-files value="C:\Users\Kisha\Sumo\2024-12-10-23-16-10\osm.motorcycle.trips.xml"/>
    </input>

    <output>
        <output-file value="C:\Users\Kisha\Sumo\2024-12-10-23-16-10\osm.motorcycle.trips.xml.tmp"/>
        <alternatives-output value="NUL"/>
        <write-trips value="true"/>
    </output>

    <processing>
        <remove-loops value="true"/>
    </processing>

    <time>
        <begin value="0.0"/>
        <end value="3600.0"/>
    </time>

    <report>
        <no-warnings value="true"/>
        <ignore-errors value="true"/>
        <no-step-log value="true"/>
    </report>

</duarouterConfiguration>
-->

<routes xmlns:xsi="http://www.w3.org/2001/XMLSchema-instance" xsi:noNamespaceSchemaLocation="http://sumo.dlr.de/xsd/routes_file.xsd">
    <vType id="motorcycle_motorcycle" vClass="motorcycle"/>
    <trip id="motorcycle0" type="motorcycle_motorcycle" depart="0.00" departLane="best" from="-29875672#0" to="29873772#5"/>
    <trip id="motorcycle1" type="motorcycle_motorcycle" depart="3.84" departLane="best" from="-930960078" to="29709040#0"/>
    <trip id="motorcycle2" type="motorcycle_motorcycle" depart="7.68" departLane="best" from="29873743#1" to="29714773"/>
    <trip id="motorcycle3" type="motorcycle_motorcycle" depart="11.51" departLane="best" from="29877065#4" to="1214792399"/>
    <trip id="motorcycle4" type="motorcycle_motorcycle" depart="15.35" departLane="best" from="-29876868#1" to="-29873679#1"/>
    <trip id="motorcycle5" type="motorcycle_motorcycle" depart="19.19" departLane="best" from="-29877324#2" to="-29719803#2"/>
    <trip id="motorcycle6" type="motorcycle_motorcycle" depart="23.03" departLane="best" from="933832472#4" to="-29877210"/>
    <trip id="motorcycle7" type="motorcycle_motorcycle" depart="26.87" departLane="best" from="-29713827#4" to="-29713918#0"/>
    <trip id="motorcycle8" type="motorcycle_motorcycle" depart="30.70" departLane="best" from="29876923#2" to="29875045#1"/>
    <trip id="motorcycle9" type="motorcycle_motorcycle" depart="34.54" departLane="best" from="29710605#2" to="933848385#2"/>
    <trip id="motorcycle10" type="motorcycle_motorcycle" depart="38.38" departLane="best" from="29873923#1" to="29875950#1"/>
    <trip id="motorcycle11" type="motorcycle_motorcycle" depart="42.22" departLane="best" from="29714198#1" to="-29875723"/>
    <trip id="motorcycle12" type="motorcycle_motorcycle" depart="46.05" departLane="best" from="29719822#4" to="-29878077"/>
    <trip id="motorcycle13" type="motorcycle_motorcycle" depart="49.89" departLane="best" from="29878349" to="-29873468#2"/>
    <trip id="motorcycle14" type="motorcycle_motorcycle" depart="53.73" departLane="best" from="29875438#0" to="-931248574#1"/>
    <trip id="motorcycle15" type="motorcycle_motorcycle" depart="57.57" departLane="best" from="-29720337#2" to="-921930210#2"/>
    <trip id="motorcycle16" type="motorcycle_motorcycle" depart="61.41" departLane="best" from="29878111#2" to="29876147#1"/>
    <trip id="motorcycle17" type="motorcycle_motorcycle" depart="65.24" departLane="best" from="-29876546#31" to="-29875446#0"/>
    <trip id="motorcycle18" type="motorcycle_motorcycle" depart="69.08" departLane="best" from="921930222#21" to="-29876546#25"/>
    <trip id="motorcycle19" type="motorcycle_motorcycle" depart="72.92" departLane="best" from="29854025" to="-921990002#1"/>
    <trip id="motorcycle20" type="motorcycle_motorcycle" depart="76.76" departLane="best" from="29875379#4" to="-29875028#3"/>
    <trip id="motorcycle21" type="motorcycle_motorcycle" depart="80.60" departLane="best" from="934329913#0" to="29709003#4"/>
    <trip id="motorcycle22" type="motorcycle_motorcycle" depart="84.43" departLane="best" from="-29714736#1" to="29719421#10"/>
    <trip id="motorcycle23" type="motorcycle_motorcycle" depart="88.27" departLane="best" from="-29876546#23" to="-930960077"/>
    <trip id="motorcycle24" type="motorcycle_motorcycle" depart="92.11" departLane="best" from="934329909" to="29709538#2"/>
    <trip id="motorcycle25" type="motorcycle_motorcycle" depart="95.95" departLane="best" from="-29715404#4" to="933832462#2"/>
    <trip id="motorcycle26" type="motorcycle_motorcycle" depart="99.79" departLane="best" from="-933858717#2" to="933832468#3"/>
    <trip id="motorcycle27" type="motorcycle_motorcycle" depart="103.62" departLane="best" from="921930222#19" to="-29875364"/>
    <trip id="motorcycle28" type="motorcycle_motorcycle" depart="107.46" departLane="best" from="922051301#3" to="921930214#9"/>
    <trip id="motorcycle29" type="motorcycle_motorcycle" depart="111.30" departLane="best" from="-29708385#0" to="930960063"/>
    <trip id="motorcycle30" type="motorcycle_motorcycle" depart="115.14" departLane="best" from="921930223#2" to="29877703#9"/>
    <trip id="motorcycle31" type="motorcycle_motorcycle" depart="118.98" departLane="best" from="29876448" to="-29711710#1"/>
    <trip id="motorcycle32" type="motorcycle_motorcycle" depart="122.81" departLane="best" from="921930222#7" to="933752014#1"/>
    <trip id="motorcycle33" type="motorcycle_motorcycle" depart="126.65" departLane="best" from="-29713610#9" to="29142790#11"/>
    <trip id="motorcycle34" type="motorcycle_motorcycle" depart="130.49" departLane="best" from="-29712097#1" to="29875761#4"/>
    <trip id="motorcycle35" type="motorcycle_motorcycle" depart="134.33" departLane="best" from="29875929" to="-29717305#1"/>
    <trip id="motorcycle36" type="motorcycle_motorcycle" depart="138.16" departLane="best" from="29142484#4" to="29712097#12"/>
    <trip id="motorcycle37" type="motorcycle_motorcycle" depart="142.00" departLane="best" from="930960084" to="-29873475"/>
    <trip id="motorcycle38" type="motorcycle_motorcycle" depart="145.84" departLane="best" from="-934206828#8" to="29720602#2"/>
    <trip id="motorcycle39" type="motorcycle_motorcycle" depart="149.68" departLane="best" from="933843102" to="29709390"/>
    <trip id="motorcycle40" type="motorcycle_motorcycle" depart="153.52" departLane="best" from="29877246#0" to="29714693#2"/>
    <trip id="motorcycle41" type="motorcycle_motorcycle" depart="157.35" departLane="best" from="29873964#1" to="-29873736#6"/>
    <trip id="motorcycle42" type="motorcycle_motorcycle" depart="161.19" departLane="best" from="29873952#0" to="921990006#0"/>
    <trip id="motorcycle43" type="motorcycle_motorcycle" depart="165.03" departLane="best" from="29873610" to="-29717505#1"/>
    <trip id="motorcycle44" type="motorcycle_motorcycle" depart="168.87" departLane="best" from="931248573" to="-29713820#9"/>
    <trip id="motorcycle45" type="motorcycle_motorcycle" depart="172.71" departLane="best" from="-228638445#2" to="29876377#1"/>
    <trip id="motorcycle46" type="motorcycle_motorcycle" depart="176.54" departLane="best" from="29714007#0" to="933752012#1"/>
    <trip id="motorcycle47" type="motorcycle_motorcycle" depart="180.38" departLane="best" from="-930960086#0" to="1214792399"/>
    <trip id="motorcycle48" type="motorcycle_motorcycle" depart="184.22" departLane="best" from="933858712#6" to="-29714064"/>
    <trip id="motorcycle49" type="motorcycle_motorcycle" depart="188.06" departLane="best" from="922051275" to="-29877285"/>
    <trip id="motorcycle50" type="motorcycle_motorcycle" depart="191.90" departLane="best" from="-930960078" to="-29875730#2"/>
    <trip id="motorcycle51" type="motorcycle_motorcycle" depart="195.73" departLane="best" from="29712097#5" to="-29709586#1"/>
    <trip id="motorcycle52" type="motorcycle_motorcycle" depart="199.57" departLane="best" from="-371051969#1" to="-29720531#1"/>
    <trip id="motorcycle53" type="motorcycle_motorcycle" depart="203.41" departLane="best" from="921990023" to="-29711710#5"/>
    <trip id="motorcycle54" type="motorcycle_motorcycle" depart="207.25" departLane="best" from="29712141#7" to="-29874760#3"/>
    <trip id="motorcycle55" type="motorcycle_motorcycle" depart="211.09" departLane="best" from="933848367" to="29714186#1"/>
    <trip id="motorcycle56" type="motorcycle_motorcycle" depart="214.92" departLane="best" from="29710605#2" to="-29714436#0"/>
    <trip id="motorcycle57" type="motorcycle_motorcycle" depart="218.76" departLane="best" from="-29708583#1" to="371068010#0"/>
    <trip id="motorcycle58" type="motorcycle_motorcycle" depart="222.60" departLane="best" from="921930236#4" to="29875015#1"/>
    <trip id="motorcycle59" type="motorcycle_motorcycle" depart="226.44" departLane="best" from="29716417#2" to="29718648#5"/>
    <trip id="motorcycle60" type="motorcycle_motorcycle" depart="230.27" departLane="best" from="29873386#1" to="-29874027"/>
    <trip id="motorcycle61" type="motorcycle_motorcycle" depart="234.11" departLane="best" from="-29876546#36" to="-29875571"/>
    <trip id="motorcycle62" type="motorcycle_motorcycle" depart="237.95" departLane="best" from="-29712116#10" to="-934206828#13"/>
    <trip id="motorcycle63" type="motorcycle_motorcycle" depart="241.79" departLane="best" from="921930236#12" to="934329909"/>
    <trip id="motorcycle64" type="motorcycle_motorcycle" depart="245.63" departLane="best" from="-29712116#5" to="-29873590"/>
    <trip id="motorcycle65" type="motorcycle_motorcycle" depart="249.46" departLane="best" from="-29875387#1" to="930960086#1"/>
    <trip id="motorcycle66" type="motorcycle_motorcycle" depart="253.30" departLane="best" from="921930226#11" to="921930222#8"/>
    <trip id="motorcycle67" type="motorcycle_motorcycle" depart="257.14" departLane="best" from="29878318#0" to="-29719825#3"/>
    <trip id="motorcycle68" type="motorcycle_motorcycle" depart="260.98" departLane="best" from="29877887" to="29873743#4"/>
    <trip id="motorcycle69" type="motorcycle_motorcycle" depart="264.82" departLane="best" from="29717704#1" to="933858714#11"/>
    <trip id="motorcycle70" type="motorcycle_motorcycle" depart="268.65" departLane="best" from="29853897" to="-1305391996"/>
    <trip id="motorcycle71" type="motorcycle_motorcycle" depart="272.49" departLane="best" from="29877304#0" to="-29876232"/>
    <trip id="motorcycle72" type="motorcycle_motorcycle" depart="276.33" departLane="best" from="29717750" to="-29716330#2"/>
    <trip id="motorcycle73" type="motorcycle_motorcycle" depart="280.17" departLane="best" from="-29714607#2" to="29712116#5"/>
    <trip id="motorcycle74" type="motorcycle_motorcycle" depart="284.01" departLane="best" from="29875644#1" to="29716921#2"/>
    <trip id="motorcycle75" type="motorcycle_motorcycle" depart="287.84" departLane="best" from="29878295#5" to="-29713827#0"/>
    <trip id="motorcycle76" type="motorcycle_motorcycle" depart="291.68" departLane="best" from="-930960086#0" to="-29875700#3"/>
    <trip id="motorcycle77" type="motorcycle_motorcycle" depart="295.52" departLane="best" from="-1209426552#2" to="-29875979"/>
    <trip id="motorcycle78" type="motorcycle_motorcycle" depart="299.36" departLane="best" from="29875305#4" to="29712097#6"/>
    <trip id="motorcycle79" type="motorcycle_motorcycle" depart="303.20" departLane="best" from="931248577#2" to="-29142702#1"/>
    <trip id="motorcycle80" type="motorcycle_motorcycle" depart="307.03" departLane="best" from="29876546#48" to="757101445#1"/>
    <trip id="motorcycle81" type="motorcycle_motorcycle" depart="310.87" departLane="best" from="921989956#1" to="-29873469"/>
    <trip id="motorcycle82" type="motorcycle_motorcycle" depart="314.71" departLane="best" from="29708730" to="-29875246"/>
    <trip id="motorcycle83" type="motorcycle_motorcycle" depart="318.55" departLane="best" from="-29877101#0" to="930960073"/>
    <trip id="motorcycle84" type="motorcycle_motorcycle" depart="322.38" departLane="best" from="29876771#0" to="757107619#13"/>
    <trip id="motorcycle85" type="motorcycle_motorcycle" depart="326.22" departLane="best" from="29877131" to="-29875430"/>
    <trip id="motorcycle86" type="motorcycle_motorcycle" depart="330.06" departLane="best" from="29876497" to="-29714682"/>
    <trip id="motorcycle87" type="motorcycle_motorcycle" depart="333.90" departLane="best" from="921930214#6" to="757101440#14"/>
    <trip id="motorcycle88" type="motorcycle_motorcycle" depart="337.74" departLane="best" from="-29873772#2" to="-29877242#0"/>
    <trip id="motorcycle89" type="motorcycle_motorcycle" depart="341.57" departLane="best" from="29876546#42" to="-29873909"/>
    <trip id="motorcycle90" type="motorcycle_motorcycle" depart="345.41" departLane="best" from="29876897#0" to="-757107619#14"/>
    <trip id="motorcycle91" type="motorcycle_motorcycle" depart="349.25" departLane="best" from="933843116#0" to="-29875738"/>
    <trip id="motorcycle92" type="motorcycle_motorcycle" depart="353.09" departLane="best" from="29720331#1" to="-921990018#1"/>
    <trip id="motorcycle93" type="motorcycle_motorcycle" depart="356.93" departLane="best" from="933858712#22" to="29710486#4"/>
    <trip id="motorcycle94" type="motorcycle_motorcycle" depart="360.76" departLane="best" from="934329912#1" to="-29716330#2"/>
    <trip id="motorcycle95" type="motorcycle_motorcycle" depart="364.60" departLane="best" from="933848376" to="-29873054#0"/>
    <trip id="motorcycle96" type="motorcycle_motorcycle" depart="368.44" departLane="best" from="29714690" to="933832462#1"/>
    <trip id="motorcycle97" type="motorcycle_motorcycle" depart="372.28" departLane="best" from="-29875045#2" to="29876546#19"/>
    <trip id="motorcycle98" type="motorcycle_motorcycle" depart="376.12" departLane="best" from="29717305#0" to="29709065#0"/>
    <trip id="motorcycle99" type="motorcycle_motorcycle" depart="379.95" departLane="best" from="-921989925" to="29714007#0"/>
    <trip id="motorcycle100" type="motorcycle_motorcycle" depart="383.79" departLane="best" from="29875239#0" to="29873891"/>
    <trip id="motorcycle101" type="motorcycle_motorcycle" depart="387.63" departLane="best" from="29708434#1" to="-930960047"/>
    <trip id="motorcycle102" type="motorcycle_motorcycle" depart="391.47" departLane="best" from="922051274" to="-29876104#1"/>
    <trip id="motorcycle103" type="motorcycle_motorcycle" depart="395.31" departLane="best" from="-29717033#1" to="-930960069"/>
    <trip id="motorcycle104" type="motorcycle_motorcycle" depart="399.14" departLane="best" from="931248596#5" to="29873281#1"/>
    <trip id="motorcycle105" type="motorcycle_motorcycle" depart="402.98" departLane="best" from="-29876244#8" to="-29712062#0"/>
    <trip id="motorcycle106" type="motorcycle_motorcycle" depart="406.82" departLane="best" from="-933843116#0" to="29873606#0"/>
    <trip id="motorcycle107" type="motorcycle_motorcycle" depart="410.66" departLane="best" from="29876546#48" to="-29720602#1"/>
    <trip id="motorcycle108" type="motorcycle_motorcycle" depart="414.49" departLane="best" from="29877337" to="-29875558#0"/>
    <trip id="motorcycle109" type="motorcycle_motorcycle" depart="418.33" departLane="best" from="29873201#0" to="-29873790#0"/>
    <trip id="motorcycle110" type="motorcycle_motorcycle" depart="422.17" departLane="best" from="-1214792399" to="29143005#0"/>
    <trip id="motorcycle111" type="motorcycle_motorcycle" depart="426.01" departLane="best" from="-29873212#0" to="29873671#2"/>
    <trip id="motorcycle112" type="motorcycle_motorcycle" depart="429.85" departLane="best" from="931248597#5" to="-29874969#2"/>
    <trip id="motorcycle113" type="motorcycle_motorcycle" depart="433.68" departLane="best" from="29875580#0" to="29875956#1"/>
    <trip id="motorcycle114" type="motorcycle_motorcycle" depart="437.52" departLane="best" from="29709411#1" to="-29709586#0"/>
    <trip id="motorcycle115" type="motorcycle_motorcycle" depart="441.36" departLane="best" from="933860457#5" to="29876718#1"/>
    <trip id="motorcycle116" type="motorcycle_motorcycle" depart="445.20" departLane="best" from="29873140#6" to="933858714#3"/>
    <trip id="motorcycle117" type="motorcycle_motorcycle" depart="449.04" departLane="best" from="-29716530#0" to="933832474#10"/>
    <trip id="motorcycle118" type="motorcycle_motorcycle" depart="452.87" departLane="best" from="921930237#1" to="29717704#0"/>
    <trip id="motorcycle119" type="motorcycle_motorcycle" depart="456.71" departLane="best" from="29142484#16" to="-29875298#4"/>
    <trip id="motorcycle120" type="motorcycle_motorcycle" depart="460.55" departLane="best" from="29712206#0" to="29875904"/>
    <trip id="motorcycle121" type="motorcycle_motorcycle" depart="464.39" departLane="best" from="-29873972#1" to="29873590"/>
    <trip id="motorcycle122" type="motorcycle_motorcycle" depart="468.23" departLane="best" from="29714544#0" to="-29873613"/>
    <trip id="motorcycle123" type="motorcycle_motorcycle" depart="472.06" departLane="best" from="-921930227#1" to="-1214772052#0"/>
    <trip id="motorcycle124" type="motorcycle_motorcycle" depart="475.90" departLane="best" from="29712046" to="29716873#1"/>
    <trip id="motorcycle125" type="motorcycle_motorcycle" depart="479.74" departLane="best" from="-29873743#1" to="-29873736#2"/>
    <trip id="motorcycle126" type="motorcycle_motorcycle" depart="483.58" departLane="best" from="933832466" to="29709003#1"/>
    <trip id="motorcycle127" type="motorcycle_motorcycle" depart="487.42" departLane="best" from="-29877206#4" to="29873297"/>
    <trip id="motorcycle128" type="motorcycle_motorcycle" depart="491.25" departLane="best" from="-922051301#1" to="-29720463"/>
    <trip id="motorcycle129" type="motorcycle_motorcycle" depart="495.09" departLane="best" from="29142558#8" to="-29717123"/>
    <trip id="motorcycle130" type="motorcycle_motorcycle" depart="498.93" departLane="best" from="921989997" to="-29713610#5"/>
    <trip id="motorcycle131" type="motorcycle_motorcycle" depart="502.77" departLane="best" from="29718207" to="1059803900"/>
    <trip id="motorcycle132" type="motorcycle_motorcycle" depart="506.60" departLane="best" from="-29873475" to="-29876826"/>
    <trip id="motorcycle133" type="motorcycle_motorcycle" depart="510.44" departLane="best" from="29708385#0" to="29711729#0"/>
    <trip id="motorcycle134" type="motorcycle_motorcycle" depart="514.28" departLane="best" from="29713610#9" to="-29873689"/>
    <trip id="motorcycle135" type="motorcycle_motorcycle" depart="518.12" departLane="best" from="29873736#4" to="29875917#7"/>
    <trip id="motorcycle136" type="motorcycle_motorcycle" depart="521.96" departLane="best" from="29875494" to="-29716080#1"/>
    <trip id="motorcycle137" type="motorcycle_motorcycle" depart="525.79" departLane="best" from="29877352#1" to="933843109#3"/>
    <trip id="motorcycle138" type="motorcycle_motorcycle" depart="529.63" departLane="best" from="29714685" to="-29708787#1"/>
    <trip id="motorcycle139" type="motorcycle_motorcycle" depart="533.47" departLane="best" from="29873470#3" to="29719421#1"/>
    <trip id="motorcycle140" type="motorcycle_motorcycle" depart="537.31" departLane="best" from="-29714221#1" to="-29875989"/>
    <trip id="motorcycle141" type="motorcycle_motorcycle" depart="541.15" departLane="best" from="29719822#3" to="29877648#2"/>
    <trip id="motorcycle142" type="motorcycle_motorcycle" depart="544.98" departLane="best" from="-29875539#3" to="-29876923#0"/>
    <trip id="motorcycle143" type="motorcycle_motorcycle" depart="548.82" departLane="best" from="933832465" to="29875089#3"/>
    <trip id="motorcycle144" type="motorcycle_motorcycle" depart="552.66" departLane="best" from="1059803889#1" to="-29873133#10"/>
    <trip id="motorcycle145" type="motorcycle_motorcycle" depart="556.50" departLane="best" from="-29877324#2" to="921930224#1"/>
    <trip id="motorcycle146" type="motorcycle_motorcycle" depart="560.34" departLane="best" from="29873742#7" to="-29875700#0"/>
    <trip id="motorcycle147" type="motorcycle_motorcycle" depart="564.17" departLane="best" from="29873470#3" to="29720525#2"/>
    <trip id="motorcycle148" type="motorcycle_motorcycle" depart="568.01" departLane="best" from="29714311#3" to="228638451#0"/>
    <trip id="motorcycle149" type="motorcycle_motorcycle" depart="571.85" departLane="best" from="29875436" to="-29876999"/>
    <trip id="motorcycle150" type="motorcycle_motorcycle" depart="575.69" departLane="best" from="29873743#9" to="-29875558#0"/>
    <trip id="motorcycle151" type="motorcycle_motorcycle" depart="579.53" departLane="best" from="-29875107#3" to="-29716679#0"/>
    <trip id="motorcycle152" type="motorcycle_motorcycle" depart="583.36" departLane="best" from="-29873134#8" to="-29873675#0"/>
    <trip id="motorcycle153" type="motorcycle_motorcycle" depart="587.20" departLane="best" from="-29875842" to="-29714191#0"/>
    <trip id="motorcycle154" type="motorcycle_motorcycle" depart="591.04" departLane="best" from="29710486#14" to="-29875658#3"/>
    <trip id="motorcycle155" type="motorcycle_motorcycle" depart="594.88" departLane="best" from="933848386#0" to="-29712116#6"/>
    <trip id="motorcycle156" type="motorcycle_motorcycle" depart="598.71" departLane="best" from="-29877728#0" to="-29713852#0"/>
    <trip id="motorcycle157" type="motorcycle_motorcycle" depart="602.55" departLane="best" from="1234956972#6" to="-933843109#6"/>
    <trip id="motorcycle158" type="motorcycle_motorcycle" depart="606.39" departLane="best" from="931248596#9" to="29142558#15"/>
    <trip id="motorcycle159" type="motorcycle_motorcycle" depart="610.23" departLane="best" from="29877488#2" to="-921990019#4"/>
    <trip id="motorcycle160" type="motorcycle_motorcycle" depart="614.07" departLane="best" from="29713610#2" to="29876343#4"/>
    <trip id="motorcycle161" type="motorcycle_motorcycle" depart="617.90" departLane="best" from="934206828#12" to="-29716545#2"/>
    <trip id="motorcycle162" type="motorcycle_motorcycle" depart="621.74" departLane="best" from="29875912" to="29717003#1"/>
    <trip id="motorcycle163" type="motorcycle_motorcycle" depart="625.58" departLane="best" from="29876546#15" to="-29873813"/>
    <trip id="motorcycle164" type="motorcycle_motorcycle" depart="629.42" departLane="best" from="-29709497#3" to="-933848398#1"/>
    <trip id="motorcycle165" type="motorcycle_motorcycle" depart="633.26" departLane="best" from="933858719" to="-29876379#1"/>
    <trip id="motorcycle166" type="motorcycle_motorcycle" depart="637.09" departLane="best" from="29718986#0" to="921930236#10"/>
    <trip id="motorcycle167" type="motorcycle_motorcycle" depart="640.93" departLane="best" from="29875305#14" to="-933752020"/>
    <trip id="motorcycle168" type="motorcycle_motorcycle" depart="644.77" departLane="best" from="29873414#1" to="-29873471"/>
    <trip id="motorcycle169" type="motorcycle_motorcycle" depart="648.61" departLane="best" from="29716355" to="-29875983#0"/>
    <trip id="motorcycle170" type="motorcycle_motorcycle" depart="652.45" departLane="best" from="29873977" to="-29873790#1"/>
    <trip id="motorcycle171" type="motorcycle_motorcycle" depart="656.28" departLane="best" from="29873743#9" to="-933858717#1"/>
    <trip id="motorcycle172" type="motorcycle_motorcycle" depart="660.12" departLane="best" from="29873133#12" to="930960087#0"/>
    <trip id="motorcycle173" type="motorcycle_motorcycle" depart="663.96" departLane="best" from="29720571" to="921990018#1"/>
    <trip id="motorcycle174" type="motorcycle_motorcycle" depart="667.80" departLane="best" from="29875539#1" to="29713815#9"/>
    <trip id="motorcycle175" type="motorcycle_motorcycle" depart="671.64" departLane="best" from="29875940#8" to="-29716906#1"/>
    <trip id="motorcycle176" type="motorcycle_motorcycle" depart="675.47" departLane="best" from="29873434" to="-29873716"/>
    <trip id="motorcycle177" type="motorcycle_motorcycle" depart="679.31" departLane="best" from="-29876718#1" to="-29875093#2"/>
    <trip id="motorcycle178" type="motorcycle_motorcycle" depart="683.15" departLane="best" from="29877937" to="29713909#0"/>
    <trip id="motorcycle179" type="motorcycle_motorcycle" depart="686.99" departLane="best" from="933832462#0" to="934329916"/>
    <trip id="motorcycle180" type="motorcycle_motorcycle" depart="690.82" departLane="best" from="1234956973#6" to="-29720634#0"/>
    <trip id="motorcycle181" type="motorcycle_motorcycle" depart="694.66" departLane="best" from="-923618357" to="-29873084"/>
    <trip id="motorcycle182" type="motorcycle_motorcycle" depart="698.50" departLane="best" from="29714622#0" to="29719768#1"/>
    <trip id="motorcycle183" type="motorcycle_motorcycle" depart="702.34" departLane="best" from="29877581#1" to="-29877108"/>
    <trip id="motorcycle184" type="motorcycle_motorcycle" depart="706.18" departLane="best" from="29873157#3" to="757101440#10"/>
    <trip id="motorcycle185" type="motorcycle_motorcycle" depart="710.01" departLane="best" from="-29876923#4" to="-29873481"/>
    <trip id="motorcycle186" type="motorcycle_motorcycle" depart="713.85" departLane="best" from="29877206#2" to="29712097#15"/>
    <trip id="motorcycle187" type="motorcycle_motorcycle" depart="717.69" departLane="best" from="-29876722#2" to="-933848373"/>
    <trip id="motorcycle188" type="motorcycle_motorcycle" depart="721.53" departLane="best" from="-29873140#2" to="-29878016#1"/>
    <trip id="motorcycle189" type="motorcycle_motorcycle" depart="725.37" departLane="best" from="29875714#3" to="922051301#3"/>
    <trip id="motorcycle190" type="motorcycle_motorcycle" depart="729.20" departLane="best" from="29875779#1" to="-29873370#0"/>
    <trip id="motorcycle191" type="motorcycle_motorcycle" depart="733.04" departLane="best" from="29712097#17" to="-930960059"/>
    <trip id="motorcycle192" type="motorcycle_motorcycle" depart="736.88" departLane="best" from="-29716684#3" to="933848385#2"/>
    <trip id="motorcycle193" type="motorcycle_motorcycle" depart="740.72" departLane="best" from="29717365" to="29874894"/>
    <trip id="motorcycle194" type="motorcycle_motorcycle" depart="744.56" departLane="best" from="933858712#18" to="-29874969#1"/>
    <trip id="motorcycle195" type="motorcycle_motorcycle" depart="748.39" departLane="best" from="-930943657#5" to="-29708941"/>
    <trip id="motorcycle196" type="motorcycle_motorcycle" depart="752.23" departLane="best" from="-29875700#2" to="29876542#4"/>
    <trip id="motorcycle197" type="motorcycle_motorcycle" depart="756.07" departLane="best" from="-930960041" to="930960093"/>
    <trip id="motorcycle198" type="motorcycle_motorcycle" depart="759.91" departLane="best" from="29875841" to="29876210#1"/>
    <trip id="motorcycle199" type="motorcycle_motorcycle" depart="763.74" departLane="best" from="-29714693#1" to="921930236#5"/>
    <trip id="motorcycle200" type="motorcycle_motorcycle" depart="767.58" departLane="best" from="29712116#5" to="29711918#2"/>
    <trip id="motorcycle201" type="motorcycle_motorcycle" depart="771.42" departLane="best" from="-29873144#0" to="29873675#1"/>
    <trip id="motorcycle202" type="motorcycle_motorcycle" depart="775.26" departLane="best" from="29713836#1" to="-29873993#7"/>
    <trip id="motorcycle203" type="motorcycle_motorcycle" depart="779.10" departLane="best" from="29875404#0" to="29873772#4"/>
    <trip id="motorcycle204" type="motorcycle_motorcycle" depart="782.93" departLane="best" from="29877166" to="-921989927"/>
    <trip id="motorcycle205" type="motorcycle_motorcycle" depart="786.77" departLane="best" from="29873134#4" to="29877352#1"/>
    <trip id="motorcycle206" type="motorcycle_motorcycle" depart="790.61" departLane="best" from="29709378" to="29708434#1"/>
    <trip id="motorcycle207" type="motorcycle_motorcycle" depart="794.45" departLane="best" from="921930219#3" to="-933843109#5"/>
    <trip id="motorcycle208" type="motorcycle_motorcycle" depart="798.29" departLane="best" from="29709521#1" to="933860457#5"/>
    <trip id="motorcycle209" type="motorcycle_motorcycle" depart="802.12" departLane="best" from="29853990#3" to="-29719762#1"/>
    <trip id="motorcycle210" type="motorcycle_motorcycle" depart="805.96" departLane="best" from="1234956972#6" to="933848368"/>
    <trip id="motorcycle211" type="motorcycle_motorcycle" depart="809.80" departLane="best" from="-29877268#1" to="29873473"/>
    <trip id="motorcycle212" type="motorcycle_motorcycle" depart="813.64" departLane="best" from="29720633#0" to="371052005#0"/>
    <trip id="motorcycle213" type="motorcycle_motorcycle" depart="817.48" departLane="best" from="-921930223#5" to="-29876546#37"/>
    <trip id="motorcycle214" type="motorcycle_motorcycle" depart="821.31" departLane="best" from="29874826" to="-29875742"/>
    <trip id="motorcycle215" type="motorcycle_motorcycle" depart="825.15" departLane="best" from="-930943657#0" to="934329912#7"/>
    <trip id="motorcycle216" type="motorcycle_motorcycle" depart="828.99" departLane="best" from="29875446#0" to="-933767685"/>