<routes xmlns:xsi="http://www.w3.org/2001/XMLSchema-instance" xsi:noNamespaceSchemaLocation="http://sumo.dlr.de/xsd/routes_file.xsd">
	<vType id="veh_passenger" vClass="passenger"/>
	<trip id="veh0" type="veh_passenger" depart="0.00" departLane="best" from="29875742" to="1293567960"/>
	<trip id="veh1" type="veh_passenger" depart="300.00" departLane="best" from="-29875742" to="1293567960"/>
	<trip id="veh2" type="veh_passenger" depart="330.00" departLane="best" from="-922051277#0" to="1293567960"/>
	<trip id="veh3" type="veh_passenger" depart="360.00" departLane="best" from="-922051277#0" to="1293567960"/>
	<trip id="veh4" type="veh_passenger" depart="390.00" departLane="best" from="-922051277#0" to="1293567960"/>
	<trip id="veh5" type="veh_passenger" depart="420.00" departLane="best" from="-922051277#0" to="1293567960"/>
	<trip id="veh6" type="veh_passenger" depart="450.00" departLane="best" from="-922051277#0" to="1293567960"/>
	<trip id="veh7" type="veh_passenger" depart="480.00" departLane="best" from="-922051277#0" to="1293567960"/>
	<trip id="veh8" type="veh_passenger" depart="510.00" departLane="best" from="-922051277#0" to="1293567960"/>
	<trip id="veh9" type="veh_passenger" depart="540.00" departLane="best" from="-922051277#0" to="1293567960"/>
	<trip id="veh10" type="veh_passenger" depart="570.00" departLane="best" from="-922051277#0" to="1293567960"/>
	<trip id="veh11" type="veh_passenger" depart="600.00" departLane="best" from="-922051277#0" to="1293567960"/>
</routes>
