<routes xmlns:xsi="http://www.w3.org/2001/XMLSchema-instance" xsi:noNamespaceSchemaLocation="http://sumo.dlr.de/xsd/routes_file.xsd">
	<vType id="veh_passenger" vClass="passenger"/>
	<trip id="veh0" type="veh_passenger" depart="0.00" departLane="best" from="29875742" to="1293567960"/>
	<trip id="veh1" type="veh_passenger" depart="2.50" departLane="best" from="-29709497#4" to="1293567960"/>
	<trip id="veh2" type="veh_passenger" depart="5.00" departLane="best" from="-29874802#0" to="1293567960"/>
	<trip id="veh3" type="veh_passenger" depart="7.50" departLane="best" from="-29874775" to="1293567960"/>
	<trip id="veh4" type="veh_passenger" depart="10.00" departLane="best" from="930967708" to="1293567960"/>
	<trip id="veh5" type="veh_passenger" depart="12.50" departLane="best" from="29709069#1" to="1293567960"/>
	<trip id="veh6" type="veh_passenger" depart="15.00" departLane="best" from="-933865033" to="1293567960"/>
	<trip id="veh7" type="veh_passenger" depart="17.50" departLane="best" from="29874858#1" to="1293567960"/>
	<trip id="veh8" type="veh_passenger" depart="20.00" departLane="best" from="933832474#0" to="1293567960"/>
	<trip id="veh9" type="veh_passenger" depart="22.50" departLane="best" from="-29709717#1" to="1293567960"/>
	<trip id="veh10" type="veh_passenger" depart="25.00" departLane="best" from="29709522#1" to="1293567960"/>
	<trip id="veh11" type="veh_passenger" depart="27.50" departLane="best" from="29874858#0" to="1293567960"/>
	<trip id="veh12" type="veh_passenger" depart="30.00" departLane="best" from="29143012#4" to="1293567960"/>
	<trip id="veh13" type="veh_passenger" depart="32.50" departLane="best" from="933767685" to="1293567960"/>
	<trip id="veh14" type="veh_passenger" depart="35.00" departLane="best" from="933832474#2" to="1293567960"/>
	<trip id="veh15" type="veh_passenger" depart="37.50" departLane="best" from="29709491#3" to="1293567960"/>
	<trip id="veh16" type="veh_passenger" depart="40.00" departLane="best" from="1209426552#5" to="1293567960"/>
	<trip id="veh17" type="veh_passenger" depart="42.50" departLane="best" from="-29709497#1" to="1293567960"/>
	<trip id="veh18" type="veh_passenger" depart="45.00" departLane="best" from="29143012#1" to="1293567960"/>
	<trip id="veh19" type="veh_passenger" depart="47.50" departLane="best" from="-29709497#6" to="1293567960"/>
	<trip id="veh20" type="veh_passenger" depart="50.00" departLane="best" from="29709497#5" to="1293567960"/>
	<trip id="veh21" type="veh_passenger" depart="52.50" departLane="best" from="-29709497#6" to="1293567960"/>
	<trip id="veh22" type="veh_passenger" depart="55.00" departLane="best" from="-29874858#1" to="1293567960"/>
	<trip id="veh23" type="veh_passenger" depart="57.50" departLane="best" from="-930960050" to="1293567960"/>
	<trip id="veh24" type="veh_passenger" depart="60.00" departLane="best" from="931278911" to="1293567960"/>
	<trip id="veh25" type="veh_passenger" depart="62.50" departLane="best" from="-1214719809" to="1293567960"/>
	<trip id="veh26" type="veh_passenger" depart="65.00" departLane="best" from="29143012#2" to="1293567960"/>
	<trip id="veh27" type="veh_passenger" depart="67.50" departLane="best" from="-29709521#0" to="1293567960"/>
	<trip id="veh28" type="veh_passenger" depart="70.00" departLane="best" from="-29874858#1" to="1293567960"/>
	<trip id="veh29" type="veh_passenger" depart="72.50" departLane="best" from="-29709497#3" to="1293567960"/>
	<trip id="veh30" type="veh_passenger" depart="75.00" departLane="best" from="-29874879" to="1293567960"/>
	<trip id="veh31" type="veh_passenger" depart="77.50" departLane="best" from="-29142822#12" to="1293567960"/>
	<trip id="veh32" type="veh_passenger" depart="80.00" departLane="best" from="29709599" to="1293567960"/>
	<trip id="veh33" type="veh_passenger" depart="82.50" departLane="best" from="-29709510" to="1293567960"/>
	<trip id="veh34" type="veh_passenger" depart="85.00" departLane="best" from="-29874760#0" to="1293567960"/>
	<trip id="veh35" type="veh_passenger" depart="87.50" departLane="best" from="934329895" to="1293567960"/>
	<trip id="veh36" type="veh_passenger" depart="90.00" departLane="best" from="933832475#5" to="1293567960"/>
	<trip id="veh37" type="veh_passenger" depart="92.50" departLane="best" from="933832475#0" to="1293567960"/>
	<trip id="veh38" type="veh_passenger" depart="95.00" departLane="best" from="-29874802#2" to="1293567960"/>
	<trip id="veh39" type="veh_passenger" depart="97.50" departLane="best" from="-29709499#3" to="1293567960"/>
	<trip id="veh40" type="veh_passenger" depart="100.00" departLane="best" from="29874881" to="1293567960"/>
	<trip id="veh41" type="veh_passenger" depart="102.50" departLane="best" from="-29711918#2" to="1293567960"/>
	<trip id="veh42" type="veh_passenger" depart="105.00" departLane="best" from="-29718207" to="1293567960"/>
	<trip id="veh43" type="veh_passenger" depart="107.50" departLane="best" from="29710020" to="1293567960"/>
	<trip id="veh44" type="veh_passenger" depart="110.00" departLane="best" from="931278912" to="1293567960"/>
	<trip id="veh45" type="veh_passenger" depart="112.50" departLane="best" from="29709538#0" to="1293567960"/>
	<trip id="veh46" type="veh_passenger" depart="115.00" departLane="best" from="29709086" to="1293567960"/>
	<trip id="veh47" type="veh_passenger" depart="117.50" departLane="best" from="29709717#1" to="1293567960"/>
	<trip id="veh48" type="veh_passenger" depart="120.00" departLane="best" from="1209426552#3" to="1293567960"/>
	<trip id="veh49" type="veh_passenger" depart="122.50" departLane="best" from="29874904" to="1293567960"/>
	<trip id="veh50" type="veh_passenger" depart="125.00" departLane="best" from="29709616" to="1293567960"/>
	<trip id="veh51" type="veh_passenger" depart="127.50" departLane="best" from="930892843" to="1293567960"/>
	<trip id="veh52" type="veh_passenger" depart="130.00" departLane="best" from="-29709598" to="1293567960"/>
	<trip id="veh53" type="veh_passenger" depart="132.50" departLane="best" from="29709542#1" to="1293567960"/>
	<trip id="veh54" type="veh_passenger" depart="135.00" departLane="best" from="-1209426552#7" to="1293567960"/>
	<trip id="veh55" type="veh_passenger" depart="137.50" departLane="best" from="-29874775" to="1293567960"/>
	<trip id="veh56" type="veh_passenger" depart="140.00" departLane="best" from="-29874858#0" to="1293567960"/>
	<trip id="veh57" type="veh_passenger" depart="142.50" departLane="best" from="-29709491#0" to="1293567960"/>
	<trip id="veh58" type="veh_passenger" depart="145.00" departLane="best" from="29709994#1" to="1293567960"/>
	<trip id="veh59" type="veh_passenger" depart="147.50" departLane="best" from="-29711918#2" to="1293567960"/>
	<trip id="veh60" type="veh_passenger" depart="150.00" departLane="best" from="-29874775" to="1293567960"/>
	<trip id="veh61" type="veh_passenger" depart="152.50" departLane="best" from="29710007" to="1293567960"/>
	<trip id="veh62" type="veh_passenger" depart="155.00" departLane="best" from="29711918#2" to="1293567960"/>
	<trip id="veh63" type="veh_passenger" depart="157.50" departLane="best" from="934329894" to="1293567960"/>
	<trip id="veh64" type="veh_passenger" depart="160.00" departLane="best" from="-29709342#1" to="1293567960"/>
	<trip id="veh65" type="veh_passenger" depart="162.50" departLane="best" from="29709510" to="1293567960"/>
	<trip id="veh66" type="veh_passenger" depart="165.00" departLane="best" from="-29709542#0" to="1293567960"/>
	<trip id="veh67" type="veh_passenger" depart="167.50" departLane="best" from="29709586#1" to="1293567960"/>
	<trip id="veh68" type="veh_passenger" depart="170.00" departLane="best" from="-29142822#16" to="1293567960"/>
	<trip id="veh69" type="veh_passenger" depart="172.50" departLane="best" from="-1209426552#7" to="1293567960"/>
	<trip id="veh70" type="veh_passenger" depart="175.00" departLane="best" from="-29709499#3" to="1293567960"/>
	<trip id="veh71" type="veh_passenger" depart="177.50" departLane="best" from="29709342#5" to="1293567960"/>
	<trip id="veh72" type="veh_passenger" depart="180.00" departLane="best" from="29709057" to="1293567960"/>
	<trip id="veh73" type="veh_passenger" depart="182.50" departLane="best" from="29711957#0" to="1293567960"/>
	<trip id="veh74" type="veh_passenger" depart="185.00" departLane="best" from="930960039#1" to="1293567960"/>
	<trip id="veh75" type="veh_passenger" depart="187.50" departLane="best" from="-29709538#2" to="1293567960"/>
	<trip id="veh76" type="veh_passenger" depart="190.00" departLane="best" from="29709378" to="1293567960"/>
	<trip id="veh77" type="veh_passenger" depart="192.50" departLane="best" from="-29874969#0" to="1293567960"/>
	<trip id="veh78" type="veh_passenger" depart="195.00" departLane="best" from="29874898#2" to="1293567960"/>
	<trip id="veh79" type="veh_passenger" depart="197.50" departLane="best" from="-29709497#2" to="1293567960"/>
	<trip id="veh80" type="veh_passenger" depart="200.00" departLane="best" from="932354160#4" to="1293567960"/>
	<trip id="veh81" type="veh_passenger" depart="202.50" departLane="best" from="-29874972#1" to="1293567960"/>
	<trip id="veh82" type="veh_passenger" depart="205.00" departLane="best" from="29709352#0" to="1293567960"/>
	<trip id="veh83" type="veh_passenger" depart="207.50" departLane="best" from="-930960039#0" to="1293567960"/>
	<trip id="veh84" type="veh_passenger" depart="210.00" departLane="best" from="-29874760#3" to="1293567960"/>
	<trip id="veh85" type="veh_passenger" depart="212.50" departLane="best" from="933832471#2" to="1293567960"/>
	<trip id="veh86" type="veh_passenger" depart="215.00" departLane="best" from="-29709542#0" to="1293567960"/>
	<trip id="veh87" type="veh_passenger" depart="217.50" departLane="best" from="29709717#1" to="1293567960"/>
	<trip id="veh88" type="veh_passenger" depart="220.00" departLane="best" from="-29874802#0" to="1293567960"/>
	<trip id="veh89" type="veh_passenger" depart="222.50" departLane="best" from="29874798#0" to="1293567960"/>
	<trip id="veh90" type="veh_passenger" depart="225.00" departLane="best" from="29709065#3" to="1293567960"/>
	<trip id="veh91" type="veh_passenger" depart="227.50" departLane="best" from="-29709499#0" to="1293567960"/>
	<trip id="veh92" type="veh_passenger" depart="230.00" departLane="best" from="29874858#1" to="1293567960"/>
	<trip id="veh93" type="veh_passenger" depart="232.50" departLane="best" from="29711918#2" to="1293567960"/>
	<trip id="veh94" type="veh_passenger" depart="235.00" departLane="best" from="930960093" to="1293567960"/>
	<trip id="veh95" type="veh_passenger" depart="237.50" departLane="best" from="29142822#9" to="1293567960"/>
	<trip id="veh96" type="veh_passenger" depart="240.00" departLane="best" from="29709545#0" to="1293567960"/>
	<trip id="veh97" type="veh_passenger" depart="242.50" departLane="best" from="-29716637#5" to="1293567960"/>
	<trip id="veh98" type="veh_passenger" depart="245.00" departLane="best" from="29709402#1" to="1293567960"/>
	<trip id="veh99" type="veh_passenger" depart="247.50" departLane="best" from="-29874858#3" to="1293567960"/>
	<trip id="veh100" type="veh_passenger" depart="250.00" departLane="best" from="-29709586#1" to="1293567960"/>
	<trip id="veh101" type="veh_passenger" depart="252.50" departLane="best" from="-29709378" to="1293567960"/>
	<trip id="veh102" type="veh_passenger" depart="255.00" departLane="best" from="29874858#0" to="1293567960"/>
	<trip id="veh103" type="veh_passenger" depart="257.50" departLane="best" from="29709073" to="1293567960"/>
	<trip id="veh104" type="veh_passenger" depart="260.00" departLane="best" from="-29874858#1" to="1293567960"/>
	<trip id="veh105" type="veh_passenger" depart="262.50" departLane="best" from="-29709503#0" to="1293567960"/>
	<trip id="veh106" type="veh_passenger" depart="265.00" departLane="best" from="934329895" to="1293567960"/>
	<trip id="veh107" type="veh_passenger" depart="267.50" departLane="best" from="29709598" to="1293567960"/>
	<trip id="veh108" type="veh_passenger" depart="270.00" departLane="best" from="-29874775" to="1293567960"/>
	<trip id="veh109" type="veh_passenger" depart="272.50" departLane="best" from="29709497#4" to="1293567960"/>
	<trip id="veh110" type="veh_passenger" depart="275.00" departLane="best" from="29709503#1" to="1293567960"/>
	<trip id="veh111" type="veh_passenger" depart="277.50" departLane="best" from="933832473#0" to="1293567960"/>
	<trip id="veh112" type="veh_passenger" depart="280.00" departLane="best" from="-29709499#3" to="1293567960"/>
	<trip id="veh113" type="veh_passenger" depart="282.50" departLane="best" from="-371068012#0" to="1293567960"/>
	<trip id="veh114" type="veh_passenger" depart="285.00" departLane="best" from="29709077#1" to="1293567960"/>
	<trip id="veh115" type="veh_passenger" depart="287.50" departLane="best" from="-29874858#3" to="1293567960"/>
	<trip id="veh116" type="veh_passenger" depart="290.00" departLane="best" from="933832471#1" to="1293567960"/>
	<trip id="veh117" type="veh_passenger" depart="292.50" departLane="best" from="-29709545#0" to="1293567960"/>
	<trip id="veh118" type="veh_passenger" depart="295.00" departLane="best" from="29711918#2" to="1293567960"/>
	<trip id="veh119" type="veh_passenger" depart="297.50" departLane="best" from="29710020" to="1293567960"/>
	<trip id="veh120" type="veh_passenger" depart="300.00" departLane="best" from="926534046#2" to="1293567960"/>
	<trip id="veh121" type="veh_passenger" depart="302.50" departLane="best" from="-29874802#2" to="1293567960"/>
	<trip id="veh122" type="veh_passenger" depart="305.00" departLane="best" from="-29709520#0" to="1293567960"/>
	<trip id="veh123" type="veh_passenger" depart="307.50" departLane="best" from="29709538#2" to="1293567960"/>
	<trip id="veh124" type="veh_passenger" depart="310.00" departLane="best" from="29709509" to="1293567960"/>
	<trip id="veh125" type="veh_passenger" depart="312.50" departLane="best" from="29709522#0" to="1293567960"/>
	<trip id="veh126" type="veh_passenger" depart="315.00" departLane="best" from="-29874972#1" to="1293567960"/>
	<trip id="veh127" type="veh_passenger" depart="317.50" departLane="best" from="29874972#1" to="1293567960"/>
	<trip id="veh128" type="veh_passenger" depart="320.00" departLane="best" from="932354160#3" to="1293567960"/>
	<trip id="veh129" type="veh_passenger" depart="322.50" departLane="best" from="-29874882" to="1293567960"/>
	<trip id="veh130" type="veh_passenger" depart="325.00" departLane="best" from="-29709497#1" to="1293567960"/>
	<trip id="veh131" type="veh_passenger" depart="327.50" departLane="best" from="932354160#5" to="1293567960"/>
	<trip id="veh132" type="veh_passenger" depart="330.00" departLane="best" from="-29709003#4" to="1293567960"/>
	<trip id="veh133" type="veh_passenger" depart="332.50" departLane="best" from="-29709709#0" to="1293567960"/>
	<trip id="veh134" type="veh_passenger" depart="335.00" departLane="best" from="-29142822#14" to="1293567960"/>
	<trip id="veh135" type="veh_passenger" depart="337.50" departLane="best" from="29874858#1" to="1293567960"/>
	<trip id="veh136" type="veh_passenger" depart="340.00" departLane="best" from="933832474#2" to="1293567960"/>
	<trip id="veh137" type="veh_passenger" depart="342.50" departLane="best" from="29709503#2" to="1293567960"/>
	<trip id="veh138" type="veh_passenger" depart="345.00" departLane="best" from="29874802#0" to="1293567960"/>
	<trip id="veh139" type="veh_passenger" depart="347.50" departLane="best" from="29709499#2" to="1293567960"/>
	<trip id="veh140" type="veh_passenger" depart="350.00" departLane="best" from="933832475#0" to="1293567960"/>
	<trip id="veh141" type="veh_passenger" depart="352.50" departLane="best" from="-29709520#1" to="1293567960"/>
	<trip id="veh142" type="veh_passenger" depart="355.00" departLane="best" from="-29874882" to="1293567960"/>
	<trip id="veh143" type="veh_passenger" depart="357.50" departLane="best" from="29874760#0" to="1293567960"/>
	<trip id="veh144" type="veh_passenger" depart="360.00" departLane="best" from="933843108" to="1293567960"/>
	<trip id="veh145" type="veh_passenger" depart="362.50" departLane="best" from="29709069#2" to="1293567960"/>
	<trip id="veh146" type="veh_passenger" depart="365.00" departLane="best" from="29709546" to="1293567960"/>
	<trip id="veh147" type="veh_passenger" depart="367.50" departLane="best" from="29874858#1" to="1293567960"/>
	<trip id="veh148" type="veh_passenger" depart="370.00" departLane="best" from="29709528" to="1293567960"/>
	<trip id="veh149" type="veh_passenger" depart="372.50" departLane="best" from="29874898#1" to="1293567960"/>
	<trip id="veh150" type="veh_passenger" depart="375.00" departLane="best" from="29143012#1" to="1293567960"/>
	<trip id="veh151" type="veh_passenger" depart="377.50" departLane="best" from="1209426552#6" to="1293567960"/>
	<trip id="veh152" type="veh_passenger" depart="380.00" departLane="best" from="-930960039#1" to="1293567960"/>
	<trip id="veh153" type="veh_passenger" depart="382.50" departLane="best" from="29709503#2" to="1293567960"/>
	<trip id="veh154" type="veh_passenger" depart="385.00" departLane="best" from="-29709352#0" to="1293567960"/>
	<trip id="veh155" type="veh_passenger" depart="387.50" departLane="best" from="29142822#15" to="1293567960"/>
	<trip id="veh156" type="veh_passenger" depart="390.00" departLane="best" from="-29874886" to="1293567960"/>
	<trip id="veh157" type="veh_passenger" depart="392.50" departLane="best" from="29709040#4" to="1293567960"/>
	<trip id="veh158" type="veh_passenger" depart="395.00" departLane="best" from="-29709040#4" to="1293567960"/>
	<trip id="veh159" type="veh_passenger" depart="397.50" departLane="best" from="29709473#1" to="1293567960"/>
	<trip id="veh160" type="veh_passenger" depart="400.00" departLane="best" from="-29709503#2" to="1293567960"/>
	<trip id="veh161" type="veh_passenger" depart="402.50" departLane="best" from="29709342#1" to="1293567960"/>
	<trip id="veh162" type="veh_passenger" depart="405.00" departLane="best" from="-29711923#1" to="1293567960"/>
	<trip id="veh163" type="veh_passenger" depart="407.50" departLane="best" from="-29709040#5" to="1293567960"/>
	<trip id="veh164" type="veh_passenger" depart="410.00" departLane="best" from="-29874972#0" to="1293567960"/>
	<trip id="veh165" type="veh_passenger" depart="412.50" departLane="best" from="-29709057" to="1293567960"/>
	<trip id="veh166" type="veh_passenger" depart="415.00" departLane="best" from="1209426552#2" to="1293567960"/>
	<trip id="veh167" type="veh_passenger" depart="417.50" departLane="best" from="-29874980" to="1293567960"/>
	<trip id="veh168" type="veh_passenger" depart="420.00" departLane="best" from="-29709538#1" to="1293567960"/>
	<trip id="veh169" type="veh_passenger" depart="422.50" departLane="best" from="-29709497#5" to="1293567960"/>
	<trip id="veh170" type="veh_passenger" depart="425.00" departLane="best" from="-29709387#1" to="1293567960"/>
	<trip id="veh171" type="veh_passenger" depart="427.50" departLane="best" from="29709503#0" to="1293567960"/>
	<trip id="veh172" type="veh_passenger" depart="430.00" departLane="best" from="29874798#0" to="1293567960"/>
	<trip id="veh173" type="veh_passenger" depart="432.50" departLane="best" from="-29874858#0" to="1293567960"/>
	<trip id="veh174" type="veh_passenger" depart="435.00" departLane="best" from="29874798#0" to="1293567960"/>
	<trip id="veh175" type="veh_passenger" depart="437.50" departLane="best" from="-29709473#1" to="1293567960"/>
	<trip id="veh176" type="veh_passenger" depart="440.00" departLane="best" from="-29709520#0" to="1293567960"/>
	<trip id="veh177" type="veh_passenger" depart="442.50" departLane="best" from="934329894" to="1293567960"/>
	<trip id="veh178" type="veh_passenger" depart="445.00" departLane="best" from="-1209426552#6" to="1293567960"/>
	<trip id="veh179" type="veh_passenger" depart="447.50" departLane="best" from="930960093" to="1293567960"/>
	<trip id="veh180" type="veh_passenger" depart="450.00" departLane="best" from="29709538#0" to="1293567960"/>
	<trip id="veh181" type="veh_passenger" depart="452.50" departLane="best" from="933832474#2" to="1293567960"/>
	<trip id="veh182" type="veh_passenger" depart="455.00" departLane="best" from="29874799" to="1293567960"/>
	<trip id="veh183" type="veh_passenger" depart="457.50" departLane="best" from="29709709#1" to="1293567960"/>
	<trip id="veh184" type="veh_passenger" depart="460.00" departLane="best" from="29710002#1" to="1293567960"/>
	<trip id="veh185" type="veh_passenger" depart="462.50" departLane="best" from="932354160#4" to="1293567960"/>
	<trip id="veh186" type="veh_passenger" depart="465.00" departLane="best" from="-1209426552#8" to="1293567960"/>
	<trip id="veh187" type="veh_passenger" depart="467.50" departLane="best" from="-29709057" to="1293567960"/>
	<trip id="veh188" type="veh_passenger" depart="470.00" departLane="best" from="-29874879" to="1293567960"/>
	<trip id="veh189" type="veh_passenger" depart="472.50" departLane="best" from="-29711918#0" to="1293567960"/>
	<trip id="veh190" type="veh_passenger" depart="475.00" departLane="best" from="933832472#0" to="1293567960"/>
	<trip id="veh191" type="veh_passenger" depart="477.50" departLane="best" from="-29711918#0" to="1293567960"/>
	<trip id="veh192" type="veh_passenger" depart="480.00" departLane="best" from="-29709503#1" to="1293567960"/>
	<trip id="veh193" type="veh_passenger" depart="482.50" departLane="best" from="-29718207" to="1293567960"/>
	<trip id="veh194" type="veh_passenger" depart="485.00" departLane="best" from="29709342#5" to="1293567960"/>
	<trip id="veh195" type="veh_passenger" depart="487.50" departLane="best" from="-29709586#1" to="1293567960"/>
	<trip id="veh196" type="veh_passenger" depart="490.00" departLane="best" from="933832459#6" to="1293567960"/>
	<trip id="veh197" type="veh_passenger" depart="492.50" departLane="best" from="-29709542#0" to="1293567960"/>
	<trip id="veh198" type="veh_passenger" depart="495.00" departLane="best" from="29874760#3" to="1293567960"/>
	<trip id="veh199" type="veh_passenger" depart="497.50" departLane="best" from="29143007#3" to="1293567960"/>
	<trip id="veh200" type="veh_passenger" depart="500.00" departLane="best" from="-29709987#1" to="1293567960"/>
</routes>
