<routes xmlns:xsi="http://www.w3.org/2001/XMLSchema-instance" xsi:noNamespaceSchemaLocation="http://sumo.dlr.de/xsd/routes_file.xsd">
	<vType id="motorcycle_motorcycle" vClass="motorcycle"/>
	<trip id="motorcycle0" type="motorcycle_motorcycle" depart="0.00" departLane="best" from="-29875672#0" to="1293567960"/>
	<trip id="motorcycle1" type="motorcycle_motorcycle" depart="2.50" departLane="best" from="-29709497#3" to="1293567960"/>
	<trip id="motorcycle2" type="motorcycle_motorcycle" depart="5.00" departLane="best" from="-29716637#5" to="1293567960"/>
	<trip id="motorcycle3" type="motorcycle_motorcycle" depart="7.50" departLane="best" from="29709520#0" to="1293567960"/>
	<trip id="motorcycle4" type="motorcycle_motorcycle" depart="10.00" departLane="best" from="29709065#0" to="1293567960"/>
	<trip id="motorcycle5" type="motorcycle_motorcycle" depart="12.50" departLane="best" from="930960049#1" to="1293567960"/>
	<trip id="motorcycle6" type="motorcycle_motorcycle" depart="15.00" departLane="best" from="-29874894" to="1293567960"/>
	<trip id="motorcycle7" type="motorcycle_motorcycle" depart="17.50" departLane="best" from="-29142822#12" to="1293567960"/>
	<trip id="motorcycle8" type="motorcycle_motorcycle" depart="20.00" departLane="best" from="29874898#2" to="1293567960"/>
	<trip id="motorcycle9" type="motorcycle_motorcycle" depart="22.50" departLane="best" from="-29709517" to="1293567960"/>
	<trip id="motorcycle10" type="motorcycle_motorcycle" depart="25.00" departLane="best" from="29874858#1" to="1293567960"/>
	<trip id="motorcycle11" type="motorcycle_motorcycle" depart="27.50" departLane="best" from="933832474#2" to="1293567960"/>
	<trip id="motorcycle12" type="motorcycle_motorcycle" depart="30.00" departLane="best" from="29709342#1" to="1293567960"/>
	<trip id="motorcycle13" type="motorcycle_motorcycle" depart="32.50" departLane="best" from="931278912" to="1293567960"/>
	<trip id="motorcycle14" type="motorcycle_motorcycle" depart="35.00" departLane="best" from="933832459#3" to="1293567960"/>
	<trip id="motorcycle15" type="motorcycle_motorcycle" depart="37.50" departLane="best" from="-29709522#1" to="1293567960"/>
	<trip id="motorcycle16" type="motorcycle_motorcycle" depart="40.00" departLane="best" from="-930967703#1" to="1293567960"/>
	<trip id="motorcycle17" type="motorcycle_motorcycle" depart="42.50" departLane="best" from="-29709473#0" to="1293567960"/>
	<trip id="motorcycle18" type="motorcycle_motorcycle" depart="45.00" departLane="best" from="-29709586#1" to="1293567960"/>
	<trip id="motorcycle19" type="motorcycle_motorcycle" depart="47.50" departLane="best" from="-29874882" to="1293567960"/>
	<trip id="motorcycle20" type="motorcycle_motorcycle" depart="50.00" departLane="best" from="933832474#5" to="1293567960"/>
	<trip id="motorcycle21" type="motorcycle_motorcycle" depart="52.50" departLane="best" from="-1209426552#6" to="1293567960"/>
	<trip id="motorcycle22" type="motorcycle_motorcycle" depart="55.00" departLane="best" from="-1209426552#8" to="1293567960"/>
	<trip id="motorcycle23" type="motorcycle_motorcycle" depart="57.50" departLane="best" from="29142822#9" to="1293567960"/>
	<trip id="motorcycle24" type="motorcycle_motorcycle" depart="60.00" departLane="best" from="-29709073" to="1293567960"/>
	<trip id="motorcycle25" type="motorcycle_motorcycle" depart="62.50" departLane="best" from="-1209426552#2" to="1293567960"/>
	<trip id="motorcycle26" type="motorcycle_motorcycle" depart="65.00" departLane="best" from="930967708" to="1293567960"/>
	<trip id="motorcycle27" type="motorcycle_motorcycle" depart="67.50" departLane="best" from="-29709987#1" to="1293567960"/>
	<trip id="motorcycle28" type="motorcycle_motorcycle" depart="70.00" departLane="best" from="-29874894" to="1293567960"/>
	<trip id="motorcycle29" type="motorcycle_motorcycle" depart="72.50" departLane="best" from="-29874841" to="1293567960"/>
	<trip id="motorcycle30" type="motorcycle_motorcycle" depart="75.00" departLane="best" from="-29711957#2" to="1293567960"/>
	<trip id="motorcycle31" type="motorcycle_motorcycle" depart="77.50" departLane="best" from="932354160#5" to="1293567960"/>
	<trip id="motorcycle32" type="motorcycle_motorcycle" depart="80.00" departLane="best" from="29874760#3" to="1293567960"/>
	<trip id="motorcycle33" type="motorcycle_motorcycle" depart="82.50" departLane="best" from="-29709069#2" to="1293567960"/>
	<trip id="motorcycle34" type="motorcycle_motorcycle" depart="85.00" departLane="best" from="-29709069#2" to="1293567960"/>
	<trip id="motorcycle35" type="motorcycle_motorcycle" depart="87.50" departLane="best" from="-29874969#0" to="1293567960"/>
	<trip id="motorcycle36" type="motorcycle_motorcycle" depart="90.00" departLane="best" from="932354160#8" to="1293567960"/>
	<trip id="motorcycle37" type="motorcycle_motorcycle" depart="92.50" departLane="best" from="-933858752" to="1293567960"/>
	<trip id="motorcycle38" type="motorcycle_motorcycle" depart="95.00" departLane="best" from="-29874798#0" to="1293567960"/>
	<trip id="motorcycle39" type="motorcycle_motorcycle" depart="97.50" departLane="best" from="29874798#0" to="1293567960"/>
	<trip id="motorcycle40" type="motorcycle_motorcycle" depart="100.00" departLane="best" from="-29874886" to="1293567960"/>
	<trip id="motorcycle41" type="motorcycle_motorcycle" depart="102.50" departLane="best" from="29142822#15" to="1293567960"/>
	<trip id="motorcycle42" type="motorcycle_motorcycle" depart="105.00" departLane="best" from="933832473#2" to="1293567960"/>
	<trip id="motorcycle43" type="motorcycle_motorcycle" depart="107.50" departLane="best" from="-29142822#14" to="1293567960"/>
	<trip id="motorcycle44" type="motorcycle_motorcycle" depart="110.00" departLane="best" from="29709497#5" to="1293567960"/>
	<trip id="motorcycle45" type="motorcycle_motorcycle" depart="112.50" departLane="best" from="-1209426552#1" to="1293567960"/>
	<trip id="motorcycle46" type="motorcycle_motorcycle" depart="115.00" departLane="best" from="-931278911" to="1293567960"/>
	<trip id="motorcycle47" type="motorcycle_motorcycle" depart="117.50" departLane="best" from="-29874799" to="1293567960"/>
	<trip id="motorcycle48" type="motorcycle_motorcycle" depart="120.00" departLane="best" from="-933858752" to="1293567960"/>
	<trip id="motorcycle49" type="motorcycle_motorcycle" depart="122.50" departLane="best" from="-29874775" to="1293567960"/>
	<trip id="motorcycle50" type="motorcycle_motorcycle" depart="125.00" departLane="best" from="-29874798#1" to="1293567960"/>
	<trip id="motorcycle51" type="motorcycle_motorcycle" depart="127.50" departLane="best" from="29874798#0" to="1293567960"/>
	<trip id="motorcycle52" type="motorcycle_motorcycle" depart="130.00" departLane="best" from="931278473#4" to="1293567960"/>
	<trip id="motorcycle53" type="motorcycle_motorcycle" depart="132.50" departLane="best" from="-29142822#11" to="1293567960"/>
	<trip id="motorcycle54" type="motorcycle_motorcycle" depart="135.00" departLane="best" from="933832474#3" to="1293567960"/>
	<trip id="motorcycle55" type="motorcycle_motorcycle" depart="137.50" departLane="best" from="-29709003#4" to="1293567960"/>
	<trip id="motorcycle56" type="motorcycle_motorcycle" depart="140.00" departLane="best" from="-29709503#4" to="1293567960"/>
	<trip id="motorcycle57" type="motorcycle_motorcycle" depart="142.50" departLane="best" from="-29709387#1" to="1293567960"/>
	<trip id="motorcycle58" type="motorcycle_motorcycle" depart="145.00" departLane="best" from="29874802#0" to="1293567960"/>
	<trip id="motorcycle59" type="motorcycle_motorcycle" depart="147.50" departLane="best" from="29709390" to="1293567960"/>
	<trip id="motorcycle60" type="motorcycle_motorcycle" depart="150.00" departLane="best" from="29709593" to="1293567960"/>
	<trip id="motorcycle61" type="motorcycle_motorcycle" depart="152.50" departLane="best" from="-29709342#3" to="1293567960"/>
	<trip id="motorcycle62" type="motorcycle_motorcycle" depart="155.00" departLane="best" from="-29709497#3" to="1293567960"/>
	<trip id="motorcycle63" type="motorcycle_motorcycle" depart="157.50" departLane="best" from="29709069#1" to="1293567960"/>
	<trip id="motorcycle64" type="motorcycle_motorcycle" depart="160.00" departLane="best" from="-29874904" to="1293567960"/>
	<trip id="motorcycle65" type="motorcycle_motorcycle" depart="162.50" departLane="best" from="1285065637" to="1293567960"/>
	<trip id="motorcycle66" type="motorcycle_motorcycle" depart="165.00" departLane="best" from="-930960039#2" to="1293567960"/>
	<trip id="motorcycle67" type="motorcycle_motorcycle" depart="167.50" departLane="best" from="-29709586#0" to="1293567960"/>
	<trip id="motorcycle68" type="motorcycle_motorcycle" depart="170.00" departLane="best" from="-29709497#4" to="1293567960"/>
	<trip id="motorcycle69" type="motorcycle_motorcycle" depart="172.50" departLane="best" from="29874760#2" to="1293567960"/>
	<trip id="motorcycle70" type="motorcycle_motorcycle" depart="175.00" departLane="best" from="29711918#0" to="1293567960"/>
	<trip id="motorcycle71" type="motorcycle_motorcycle" depart="177.50" departLane="best" from="29709509" to="1293567960"/>
	<trip id="motorcycle72" type="motorcycle_motorcycle" depart="180.00" departLane="best" from="29874802#0" to="1293567960"/>
	<trip id="motorcycle73" type="motorcycle_motorcycle" depart="182.50" departLane="best" from="-29716637#5" to="1293567960"/>
	<trip id="motorcycle74" type="motorcycle_motorcycle" depart="185.00" departLane="best" from="29709494#0" to="1293567960"/>
	<trip id="motorcycle75" type="motorcycle_motorcycle" depart="187.50" departLane="best" from="-29874882" to="1293567960"/>
	<trip id="motorcycle76" type="motorcycle_motorcycle" depart="190.00" departLane="best" from="933832475#5" to="1293567960"/>
	<trip id="motorcycle77" type="motorcycle_motorcycle" depart="192.50" departLane="best" from="932354160#3" to="1293567960"/>
	<trip id="motorcycle78" type="motorcycle_motorcycle" depart="195.00" departLane="best" from="29710002#1" to="1293567960"/>
	<trip id="motorcycle79" type="motorcycle_motorcycle" depart="197.50" departLane="best" from="29709520#1" to="1293567960"/>
	<trip id="motorcycle80" type="motorcycle_motorcycle" depart="200.00" departLane="best" from="-29142822#11" to="1293567960"/>
	<trip id="motorcycle81" type="motorcycle_motorcycle" depart="202.50" departLane="best" from="29143007#3" to="1293567960"/>
	<trip id="motorcycle82" type="motorcycle_motorcycle" depart="205.00" departLane="best" from="-29718207" to="1293567960"/>
	<trip id="motorcycle83" type="motorcycle_motorcycle" depart="207.50" departLane="best" from="-29142822#17" to="1293567960"/>
	<trip id="motorcycle84" type="motorcycle_motorcycle" depart="210.00" departLane="best" from="29710007" to="1293567960"/>
	<trip id="motorcycle85" type="motorcycle_motorcycle" depart="212.50" departLane="best" from="933832474#8" to="1293567960"/>
	<trip id="motorcycle86" type="motorcycle_motorcycle" depart="215.00" departLane="best" from="29709065#2" to="1293567960"/>
	<trip id="motorcycle87" type="motorcycle_motorcycle" depart="217.50" departLane="best" from="29709497#6" to="1293567960"/>
	<trip id="motorcycle88" type="motorcycle_motorcycle" depart="220.00" departLane="best" from="-29709545#0" to="1293567960"/>
	<trip id="motorcycle89" type="motorcycle_motorcycle" depart="222.50" departLane="best" from="-29874898#0" to="1293567960"/>
	<trip id="motorcycle90" type="motorcycle_motorcycle" depart="225.00" departLane="best" from="29709522#1" to="1293567960"/>
	<trip id="motorcycle91" type="motorcycle_motorcycle" depart="227.50" departLane="best" from="934329895" to="1293567960"/>
	<trip id="motorcycle92" type="motorcycle_motorcycle" depart="230.00" departLane="best" from="-29711918#2" to="1293567960"/>
	<trip id="motorcycle93" type="motorcycle_motorcycle" depart="232.50" departLane="best" from="933832473#1" to="1293567960"/>
	<trip id="motorcycle94" type="motorcycle_motorcycle" depart="235.00" departLane="best" from="-29874802#0" to="1293567960"/>
	<trip id="motorcycle95" type="motorcycle_motorcycle" depart="237.50" departLane="best" from="-29709387#0" to="1293567960"/>
	<trip id="motorcycle96" type="motorcycle_motorcycle" depart="240.00" departLane="best" from="29874802#1" to="1293567960"/>
	<trip id="motorcycle97" type="motorcycle_motorcycle" depart="242.50" departLane="best" from="29711918#0" to="1293567960"/>
	<trip id="motorcycle98" type="motorcycle_motorcycle" depart="245.00" departLane="best" from="-29874802#2" to="1293567960"/>
	<trip id="motorcycle99" type="motorcycle_motorcycle" depart="247.50" departLane="best" from="29709598" to="1293567960"/>
	<trip id="motorcycle100" type="motorcycle_motorcycle" depart="250.00" departLane="best" from="933832474#8" to="1293567960"/>
	<trip id="motorcycle101" type="motorcycle_motorcycle" depart="252.50" departLane="best" from="29709057" to="1293567960"/>
	<trip id="motorcycle102" type="motorcycle_motorcycle" depart="255.00" departLane="best" from="933832474#9" to="1293567960"/>
	<trip id="motorcycle103" type="motorcycle_motorcycle" depart="257.50" departLane="best" from="-29874904" to="1293567960"/>
	<trip id="motorcycle104" type="motorcycle_motorcycle" depart="260.00" departLane="best" from="29874980" to="1293567960"/>
	<trip id="motorcycle105" type="motorcycle_motorcycle" depart="262.50" departLane="best" from="29143012#0" to="1293567960"/>
	<trip id="motorcycle106" type="motorcycle_motorcycle" depart="265.00" departLane="best" from="-29710002#0" to="1293567960"/>
	<trip id="motorcycle107" type="motorcycle_motorcycle" depart="267.50" departLane="best" from="29709503#1" to="1293567960"/>
	<trip id="motorcycle108" type="motorcycle_motorcycle" depart="270.00" departLane="best" from="29709994#1" to="1293567960"/>
	<trip id="motorcycle109" type="motorcycle_motorcycle" depart="272.50" departLane="best" from="-29142822#17" to="1293567960"/>
	<trip id="motorcycle110" type="motorcycle_motorcycle" depart="275.00" departLane="best" from="-29709994#0" to="1293567960"/>
	<trip id="motorcycle111" type="motorcycle_motorcycle" depart="277.50" departLane="best" from="-930892844" to="1293567960"/>
	<trip id="motorcycle112" type="motorcycle_motorcycle" depart="280.00" departLane="best" from="29143007#4" to="1293567960"/>
	<trip id="motorcycle113" type="motorcycle_motorcycle" depart="282.50" departLane="best" from="29709525#1" to="1293567960"/>
	<trip id="motorcycle114" type="motorcycle_motorcycle" depart="285.00" departLane="best" from="933832471#2" to="1293567960"/>
	<trip id="motorcycle115" type="motorcycle_motorcycle" depart="287.50" departLane="best" from="-29711918#0" to="1293567960"/>
	<trip id="motorcycle116" type="motorcycle_motorcycle" depart="290.00" departLane="best" from="29143007#4" to="1293567960"/>
	<trip id="motorcycle117" type="motorcycle_motorcycle" depart="292.50" departLane="best" from="1209426552#7" to="1293567960"/>
	<trip id="motorcycle118" type="motorcycle_motorcycle" depart="295.00" departLane="best" from="29716733" to="1293567960"/>
	<trip id="motorcycle119" type="motorcycle_motorcycle" depart="297.50" departLane="best" from="-29711957#0" to="1293567960"/>
	<trip id="motorcycle120" type="motorcycle_motorcycle" depart="300.00" departLane="best" from="-29874858#3" to="1293567960"/>
	<trip id="motorcycle121" type="motorcycle_motorcycle" depart="302.50" departLane="best" from="-29709599" to="1293567960"/>
	<trip id="motorcycle122" type="motorcycle_motorcycle" depart="305.00" departLane="best" from="29874898#2" to="1293567960"/>
	<trip id="motorcycle123" type="motorcycle_motorcycle" depart="307.50" departLane="best" from="-933860456" to="1293567960"/>
	<trip id="motorcycle124" type="motorcycle_motorcycle" depart="310.00" departLane="best" from="931278473#4" to="1293567960"/>
	<trip id="motorcycle125" type="motorcycle_motorcycle" depart="312.50" departLane="best" from="-29874882" to="1293567960"/>
	<trip id="motorcycle126" type="motorcycle_motorcycle" depart="315.00" departLane="best" from="-29874913#0" to="1293567960"/>
	<trip id="motorcycle127" type="motorcycle_motorcycle" depart="317.50" departLane="best" from="-29709546" to="1293567960"/>
	<trip id="motorcycle128" type="motorcycle_motorcycle" depart="320.00" departLane="best" from="29709994#1" to="1293567960"/>
	<trip id="motorcycle129" type="motorcycle_motorcycle" depart="322.50" departLane="best" from="29709352#0" to="1293567960"/>
	<trip id="motorcycle130" type="motorcycle_motorcycle" depart="325.00" departLane="best" from="-29709387#1" to="1293567960"/>
	<trip id="motorcycle131" type="motorcycle_motorcycle" depart="327.50" departLane="best" from="933832474#4" to="1293567960"/>
	<trip id="motorcycle132" type="motorcycle_motorcycle" depart="330.00" departLane="best" from="29709525#0" to="1293567960"/>
	<trip id="motorcycle133" type="motorcycle_motorcycle" depart="332.50" departLane="best" from="29709499#1" to="1293567960"/>
	<trip id="motorcycle134" type="motorcycle_motorcycle" depart="335.00" departLane="best" from="29709390" to="1293567960"/>
	<trip id="motorcycle135" type="motorcycle_motorcycle" depart="337.50" departLane="best" from="1209426552#5" to="1293567960"/>
	<trip id="motorcycle136" type="motorcycle_motorcycle" depart="340.00" departLane="best" from="29709522#0" to="1293567960"/>
	<trip id="motorcycle137" type="motorcycle_motorcycle" depart="342.50" departLane="best" from="-29874898#1" to="1293567960"/>
	<trip id="motorcycle138" type="motorcycle_motorcycle" depart="345.00" departLane="best" from="-29709503#1" to="1293567960"/>
	<trip id="motorcycle139" type="motorcycle_motorcycle" depart="347.50" departLane="best" from="-29709342#3" to="1293567960"/>
	<trip id="motorcycle140" type="motorcycle_motorcycle" depart="350.00" departLane="best" from="29710002#1" to="1293567960"/>
	<trip id="motorcycle141" type="motorcycle_motorcycle" depart="352.50" departLane="best" from="933832475#7" to="1293567960"/>
	<trip id="motorcycle142" type="motorcycle_motorcycle" depart="355.00" departLane="best" from="29142822#14" to="1293567960"/>
	<trip id="motorcycle143" type="motorcycle_motorcycle" depart="357.50" departLane="best" from="933832459#6" to="1293567960"/>
	<trip id="motorcycle144" type="motorcycle_motorcycle" depart="360.00" departLane="best" from="29709065#3" to="1293567960"/>
	<trip id="motorcycle145" type="motorcycle_motorcycle" depart="362.50" departLane="best" from="29709065#2" to="1293567960"/>
	<trip id="motorcycle146" type="motorcycle_motorcycle" depart="365.00" departLane="best" from="931278912" to="1293567960"/>
	<trip id="motorcycle147" type="motorcycle_motorcycle" depart="367.50" departLane="best" from="29709499#3" to="1293567960"/>
	<trip id="motorcycle148" type="motorcycle_motorcycle" depart="370.00" departLane="best" from="29716637#5" to="1293567960"/>
	<trip id="motorcycle149" type="motorcycle_motorcycle" depart="372.50" departLane="best" from="-930960039#0" to="1293567960"/>
	<trip id="motorcycle150" type="motorcycle_motorcycle" depart="375.00" departLane="best" from="29709499#0" to="1293567960"/>
	<trip id="motorcycle151" type="motorcycle_motorcycle" depart="377.50" departLane="best" from="-29142822#14" to="1293567960"/>
	<trip id="motorcycle152" type="motorcycle_motorcycle" depart="380.00" departLane="best" from="-29709538#0" to="1293567960"/>
	<trip id="motorcycle153" type="motorcycle_motorcycle" depart="382.50" departLane="best" from="29709040#3" to="1293567960"/>
	<trip id="motorcycle154" type="motorcycle_motorcycle" depart="385.00" departLane="best" from="29709994#0" to="1293567960"/>
	<trip id="motorcycle155" type="motorcycle_motorcycle" depart="387.50" departLane="best" from="-29142822#9" to="1293567960"/>
	<trip id="motorcycle156" type="motorcycle_motorcycle" depart="390.00" departLane="best" from="-29709065#0" to="1293567960"/>
	<trip id="motorcycle157" type="motorcycle_motorcycle" depart="392.50" departLane="best" from="-29709065#0" to="1293567960"/>
	<trip id="motorcycle158" type="motorcycle_motorcycle" depart="395.00" departLane="best" from="-29709538#0" to="1293567960"/>
	<trip id="motorcycle159" type="motorcycle_motorcycle" depart="397.50" departLane="best" from="29709586#1" to="1293567960"/>
	<trip id="motorcycle160" type="motorcycle_motorcycle" depart="400.00" departLane="best" from="29710002#1" to="1293567960"/>
	<trip id="motorcycle161" type="motorcycle_motorcycle" depart="402.50" departLane="best" from="29709342#5" to="1293567960"/>
	<trip id="motorcycle162" type="motorcycle_motorcycle" depart="405.00" departLane="best" from="29709525#0" to="1293567960"/>
	<trip id="motorcycle163" type="motorcycle_motorcycle" depart="407.50" departLane="best" from="-1209426552#4" to="1293567960"/>
	<trip id="motorcycle164" type="motorcycle_motorcycle" depart="410.00" departLane="best" from="-29709593" to="1293567960"/>
	<trip id="motorcycle165" type="motorcycle_motorcycle" depart="412.50" departLane="best" from="-371068012#0" to="1293567960"/>
	<trip id="motorcycle166" type="motorcycle_motorcycle" depart="415.00" departLane="best" from="-29711916" to="1293567960"/>
	<trip id="motorcycle167" type="motorcycle_motorcycle" depart="417.50" departLane="best" from="930960093" to="1293567960"/>
	<trip id="motorcycle168" type="motorcycle_motorcycle" depart="420.00" departLane="best" from="29709057" to="1293567960"/>
	<trip id="motorcycle169" type="motorcycle_motorcycle" depart="422.50" departLane="best" from="29709503#1" to="1293567960"/>
	<trip id="motorcycle170" type="motorcycle_motorcycle" depart="425.00" departLane="best" from="29709528" to="1293567960"/>
	<trip id="motorcycle171" type="motorcycle_motorcycle" depart="427.50" departLane="best" from="-930960050" to="1293567960"/>
	<trip id="motorcycle172" type="motorcycle_motorcycle" depart="430.00" departLane="best" from="29709003#4" to="1293567960"/>
	<trip id="motorcycle173" type="motorcycle_motorcycle" depart="432.50" departLane="best" from="-29716637#5" to="1293567960"/>
	<trip id="motorcycle174" type="motorcycle_motorcycle" depart="435.00" departLane="best" from="29874798#0" to="1293567960"/>
	<trip id="motorcycle175" type="motorcycle_motorcycle" depart="437.50" departLane="best" from="-29709499#1" to="1293567960"/>
	<trip id="motorcycle176" type="motorcycle_motorcycle" depart="440.00" departLane="best" from="29710020" to="1293567960"/>
	<trip id="motorcycle177" type="motorcycle_motorcycle" depart="442.50" departLane="best" from="29709522#0" to="1293567960"/>
	<trip id="motorcycle178" type="motorcycle_motorcycle" depart="445.00" departLane="best" from="-29709040#5" to="1293567960"/>
	<trip id="motorcycle179" type="motorcycle_motorcycle" depart="447.50" departLane="best" from="-29709497#2" to="1293567960"/>
	<trip id="motorcycle180" type="motorcycle_motorcycle" depart="450.00" departLane="best" from="29710002#1" to="1293567960"/>
	<trip id="motorcycle181" type="motorcycle_motorcycle" depart="452.50" departLane="best" from="-29711957#0" to="1293567960"/>
	<trip id="motorcycle182" type="motorcycle_motorcycle" depart="455.00" departLane="best" from="29709342#1" to="1293567960"/>
	<trip id="motorcycle183" type="motorcycle_motorcycle" depart="457.50" departLane="best" from="933832471#2" to="1293567960"/>
	<trip id="motorcycle184" type="motorcycle_motorcycle" depart="460.00" departLane="best" from="-29709522#0" to="1293567960"/>
	<trip id="motorcycle185" type="motorcycle_motorcycle" depart="462.50" departLane="best" from="29709522#0" to="1293567960"/>
	<trip id="motorcycle186" type="motorcycle_motorcycle" depart="465.00" departLane="best" from="29709040#4" to="1293567960"/>
	<trip id="motorcycle187" type="motorcycle_motorcycle" depart="467.50" departLane="best" from="-29709542#0" to="1293567960"/>
	<trip id="motorcycle188" type="motorcycle_motorcycle" depart="470.00" departLane="best" from="-29874898#1" to="1293567960"/>
	<trip id="motorcycle189" type="motorcycle_motorcycle" depart="472.50" departLane="best" from="933832475#7" to="1293567960"/>
	<trip id="motorcycle190" type="motorcycle_motorcycle" depart="475.00" departLane="best" from="-29710002#0" to="1293567960"/>
	<trip id="motorcycle191" type="motorcycle_motorcycle" depart="477.50" departLane="best" from="29874904" to="1293567960"/>
	<trip id="motorcycle192" type="motorcycle_motorcycle" depart="480.00" departLane="best" from="-29709987#1" to="1293567960"/>
	<trip id="motorcycle193" type="motorcycle_motorcycle" depart="482.50" departLane="best" from="29711957#3" to="1293567960"/>
	<trip id="motorcycle194" type="motorcycle_motorcycle" depart="485.00" departLane="best" from="29709717#1" to="1293567960"/>
	<trip id="motorcycle195" type="motorcycle_motorcycle" depart="487.50" departLane="best" from="933832475#5" to="1293567960"/>
	<trip id="motorcycle196" type="motorcycle_motorcycle" depart="490.00" departLane="best" from="-29709069#1" to="1293567960"/>
	<trip id="motorcycle197" type="motorcycle_motorcycle" depart="492.50" departLane="best" from="1209426552#3" to="1293567960"/>
	<trip id="motorcycle198" type="motorcycle_motorcycle" depart="495.00" departLane="best" from="-29709525#1" to="1293567960"/>
	<trip id="motorcycle199" type="motorcycle_motorcycle" depart="497.50" departLane="best" from="-933767686" to="1293567960"/>
	<trip id="motorcycle200" type="motorcycle_motorcycle" depart="500.00" departLane="best" from="933832475#5" to="1293567960"/>
</routes>
