<routes xmlns:xsi="http://www.w3.org/2001/XMLSchema-instance" xsi:noNamespaceSchemaLocation="http://sumo.dlr.de/xsd/routes_file.xsd">
	<vType id="veh_passenger" vClass="passenger"/>
	<trip id="veh0" type="veh_passenger" depart="0.00" departLane="best" from="29875742" to="-29873850"/>
	<trip id="veh1" type="veh_passenger" depart="1.00" departLane="best" from="918680933#1" to="-29896138"/>
	<trip id="veh2" type="veh_passenger" depart="2.00" departLane="best" from="921930206#2" to="29896138"/>
	<trip id="veh3" type="veh_passenger" depart="3.00" departLane="best" from="29142702#4" to="29896138"/>
	<trip id="veh4" type="veh_passenger" depart="4.00" departLane="best" from="757102089#5" to="29895497#24"/>
	<trip id="veh5" type="veh_passenger" depart="5.00" departLane="best" from="-29853864" to="-29895497#24"/>
	<trip id="veh6" type="veh_passenger" depart="6.00" departLane="best" from="-29855102#1" to="-29896138"/>
	<trip id="veh7" type="veh_passenger" depart="7.00" departLane="best" from="371052004#1" to="29895497#24"/>
	<trip id="veh8" type="veh_passenger" depart="8.00" departLane="best" from="-757102097#2" to="29896138"/>
	<trip id="veh9" type="veh_passenger" depart="9.00" departLane="best" from="-29719868" to="-29895497#23"/>
	<trip id="veh10" type="veh_passenger" depart="10.00" departLane="best" from="-29867322#0" to="-29895497#23"/>
	<trip id="veh11" type="veh_passenger" depart="11.00" departLane="best" from="757102089#8" to="29895497#24"/>
	<trip id="veh12" type="veh_passenger" depart="12.00" departLane="best" from="-29854369#1" to="29895497#24"/>
	<trip id="veh13" type="veh_passenger" depart="13.00" departLane="best" from="921989939#1" to="29896138"/>
	<trip id="veh14" type="veh_passenger" depart="14.00" departLane="best" from="-921930212" to="-29896138"/>
	<trip id="veh15" type="veh_passenger" depart="15.00" departLane="best" from="921930206#2" to="-29896138"/>
	<trip id="veh16" type="veh_passenger" depart="16.00" departLane="best" from="-29869498#1" to="-29896138"/>
	<trip id="veh17" type="veh_passenger" depart="17.00" departLane="best" from="921989939#0" to="-29896138"/>
	<trip id="veh18" type="veh_passenger" depart="18.00" departLane="best" from="29854316#2" to="29896138"/>
	<trip id="veh19" type="veh_passenger" depart="19.00" departLane="best" from="-29720012" to="-29895497#24"/>
	<trip id="veh20" type="veh_passenger" depart="20.00" departLane="best" from="921930200" to="-29895497#24"/>
	<trip id="veh21" type="veh_passenger" depart="21.00" departLane="best" from="371051957#0" to="-29895497#24"/>
	<trip id="veh22" type="veh_passenger" depart="22.00" departLane="best" from="757101428#4" to="-29895497#23"/>
	<trip id="veh23" type="veh_passenger" depart="23.00" departLane="best" from="-29860975#0" to="29895497#23"/>
	<trip id="veh24" type="veh_passenger" depart="24.00" departLane="best" from="371051975" to="-29896138"/>
	<trip id="veh25" type="veh_passenger" depart="25.00" departLane="best" from="759565134#1" to="29895497#24"/>
	<trip id="veh26" type="veh_passenger" depart="26.00" departLane="best" from="29142702#1" to="-29895497#23"/>
	<trip id="veh27" type="veh_passenger" depart="27.00" departLane="best" from="29869498#2" to="-29895497#24"/>
	<trip id="veh28" type="veh_passenger" depart="28.00" departLane="best" from="-371052012#0" to="-29895497#24"/>
	<trip id="veh29" type="veh_passenger" depart="29.00" departLane="best" from="29719836#0" to="-29895497#24"/>
	<trip id="veh30" type="veh_passenger" depart="30.00" departLane="best" from="-921930223#2" to="29895497#24"/>
	<trip id="veh31" type="veh_passenger" depart="31.00" departLane="best" from="-29878338#0" to="29895497#23"/>
	<trip id="veh32" type="veh_passenger" depart="32.00" departLane="best" from="-371052000#12" to="29895497#23"/>
	<trip id="veh33" type="veh_passenger" depart="33.00" departLane="best" from="918680916#1" to="29895497#24"/>
	<trip id="veh34" type="veh_passenger" depart="34.00" departLane="best" from="757102089#9" to="29895497#23"/>
	<trip id="veh35" type="veh_passenger" depart="35.00" departLane="best" from="-29720331#0" to="29895497#23"/>
	<trip id="veh36" type="veh_passenger" depart="36.00" departLane="best" from="371052000#23" to="29895497#24"/>
	<trip id="veh37" type="veh_passenger" depart="37.00" departLane="best" from="921930226#7" to="29895497#23"/>
	<trip id="veh38" type="veh_passenger" depart="38.00" departLane="best" from="29873157#3" to="-29896138"/>
	<trip id="veh39" type="veh_passenger" depart="39.00" departLane="best" from="-29873162" to="-29896138"/>
	<trip id="veh40" type="veh_passenger" depart="40.00" departLane="best" from="-29857533#1" to="29895497#24"/>
	<trip id="veh41" type="veh_passenger" depart="41.00" departLane="best" from="29858274" to="-29895497#24"/>
	<trip id="veh42" type="veh_passenger" depart="42.00" departLane="best" from="29870771#1" to="29896138"/>
	<trip id="veh43" type="veh_passenger" depart="43.00" departLane="best" from="757101429#3" to="-29895497#24"/>
	<trip id="veh44" type="veh_passenger" depart="44.00" departLane="best" from="-371052000#25" to="29895497#24"/>
	<trip id="veh45" type="veh_passenger" depart="45.00" departLane="best" from="29719836#0" to="-29896138"/>
	<trip id="veh46" type="veh_passenger" depart="46.00" departLane="best" from="918680932" to="29895497#23"/>
	<trip id="veh47" type="veh_passenger" depart="47.00" departLane="best" from="29854805#4" to="29896138"/>
	<trip id="veh48" type="veh_passenger" depart="48.00" departLane="best" from="29860618" to="29896138"/>
	<trip id="veh49" type="veh_passenger" depart="49.00" departLane="best" from="-29853840#1" to="-29895497#23"/>
	<trip id="veh50" type="veh_passenger" depart="50.00" departLane="best" from="29870918#11" to="-29896138"/>
	<trip id="veh51" type="veh_passenger" depart="51.00" departLane="best" from="921989941#0" to="29895497#24"/>
	<trip id="veh52" type="veh_passenger" depart="52.00" departLane="best" from="-29855261#8" to="29895497#24"/>
	<trip id="veh53" type="veh_passenger" depart="53.00" departLane="best" from="-29033330#14" to="29896138"/>
	<trip id="veh54" type="veh_passenger" depart="54.00" departLane="best" from="757101440#11" to="29895497#23"/>
	<trip id="veh55" type="veh_passenger" depart="55.00" departLane="best" from="-29859185" to="29895497#24"/>
	<trip id="veh56" type="veh_passenger" depart="56.00" departLane="best" from="757102097#0" to="-29896138"/>
	<trip id="veh57" type="veh_passenger" depart="57.00" departLane="best" from="921930223#2" to="-29895497#23"/>
	<trip id="veh58" type="veh_passenger" depart="58.00" departLane="best" from="29858436#2" to="29896138"/>
	<trip id="veh59" type="veh_passenger" depart="59.00" departLane="best" from="-29873203" to="-29895497#23"/>
	<trip id="veh60" type="veh_passenger" depart="60.00" departLane="best" from="29871492#1" to="29896138"/>
	<trip id="veh61" type="veh_passenger" depart="61.00" departLane="best" from="371051977" to="-29896138"/>
	<trip id="veh62" type="veh_passenger" depart="62.00" departLane="best" from="-371051959" to="29895497#24"/>
	<trip id="veh63" type="veh_passenger" depart="63.00" departLane="best" from="-29854805#2" to="-29895497#23"/>
	<trip id="veh64" type="veh_passenger" depart="64.00" departLane="best" from="29871683" to="-29895497#24"/>
	<trip id="veh65" type="veh_passenger" depart="65.00" departLane="best" from="-29720331#2" to="-29895497#24"/>
	<trip id="veh66" type="veh_passenger" depart="66.00" departLane="best" from="-29860368#0" to="-29896138"/>
	<trip id="veh67" type="veh_passenger" depart="67.00" departLane="best" from="921989938" to="-29895497#23"/>
	<trip id="veh68" type="veh_passenger" depart="68.00" departLane="best" from="29873138#6" to="29895497#23"/>
	<trip id="veh69" type="veh_passenger" depart="69.00" departLane="best" from="29873048#1" to="29896138"/>
	<trip id="veh70" type="veh_passenger" depart="70.00" departLane="best" from="921989974" to="-29895497#24"/>
	<trip id="veh71" type="veh_passenger" depart="71.00" departLane="best" from="371051987#8" to="29895497#23"/>
	<trip id="veh72" type="veh_passenger" depart="72.00" departLane="best" from="29878349" to="-29895497#24"/>
	<trip id="veh73" type="veh_passenger" depart="73.00" departLane="best" from="-921989940" to="-29896138"/>
	<trip id="veh74" type="veh_passenger" depart="74.00" departLane="best" from="29872391#1" to="-29896138"/>
	<trip id="veh75" type="veh_passenger" depart="75.00" departLane="best" from="-29719743" to="-29895497#24"/>
	<trip id="veh76" type="veh_passenger" depart="76.00" departLane="best" from="-918680936#2" to="-29896138"/>
	<trip id="veh77" type="veh_passenger" depart="77.00" departLane="best" from="-29869465" to="-29895497#24"/>
	<trip id="veh78" type="veh_passenger" depart="78.00" departLane="best" from="-371052000#17" to="-29896138"/>
	<trip id="veh79" type="veh_passenger" depart="79.00" departLane="best" from="29862953" to="-29896138"/>
	<trip id="veh80" type="veh_passenger" depart="80.00" departLane="best" from="29853990#7" to="29895497#23"/>
	<trip id="veh81" type="veh_passenger" depart="81.00" departLane="best" from="-918680935" to="29895497#23"/>
	<trip id="veh82" type="veh_passenger" depart="82.00" departLane="best" from="29873158" to="-29896138"/>
	<trip id="veh83" type="veh_passenger" depart="83.00" departLane="best" from="29854711#3" to="-29896138"/>
	<trip id="veh84" type="veh_passenger" depart="84.00" departLane="best" from="-29870918#4" to="-29896138"/>
	<trip id="veh85" type="veh_passenger" depart="85.00" departLane="best" from="-921930223#3" to="-29896138"/>
	<trip id="veh86" type="veh_passenger" depart="86.00" departLane="best" from="-932761298" to="29896138"/>
	<trip id="veh87" type="veh_passenger" depart="87.00" departLane="best" from="29720405#0" to="-29896138"/>
	<trip id="veh88" type="veh_passenger" depart="88.00" departLane="best" from="29876546#59" to="29895497#24"/>
	<trip id="veh89" type="veh_passenger" depart="89.00" departLane="best" from="29853990#3" to="-29896138"/>
	<trip id="veh90" type="veh_passenger" depart="90.00" departLane="best" from="-29859052" to="29896138"/>
	<trip id="veh91" type="veh_passenger" depart="91.00" departLane="best" from="29870918#0" to="-29895497#23"/>
	<trip id="veh92" type="veh_passenger" depart="92.00" departLane="best" from="-371052000#3" to="-29896138"/>
	<trip id="veh93" type="veh_passenger" depart="93.00" departLane="best" from="-29854347#1" to="-29895497#23"/>
	<trip id="veh94" type="veh_passenger" depart="94.00" departLane="best" from="29869948#0" to="-29896138"/>
	<trip id="veh95" type="veh_passenger" depart="95.00" departLane="best" from="921989991" to="-29895497#23"/>
	<trip id="veh96" type="veh_passenger" depart="96.00" departLane="best" from="-757102097#1" to="-29895497#23"/>
	<trip id="veh97" type="veh_passenger" depart="97.00" departLane="best" from="921930226#9" to="-29895497#23"/>
	<trip id="veh98" type="veh_passenger" depart="98.00" departLane="best" from="921989976#4" to="-29895497#23"/>
	<trip id="veh99" type="veh_passenger" depart="99.00" departLane="best" from="29859041" to="-29896138"/>
	<trip id="veh100" type="veh_passenger" depart="100.00" departLane="best" from="-371052000#20" to="29895497#23"/>
	<trip id="veh101" type="veh_passenger" depart="110.00" departLane="best" from="370844052" to="-370843944"/>
	<trip id="veh102" type="veh_passenger" depart="120.00" departLane="best" from="371063691#6" to="-28928049#2"/>
	<trip id="veh103" type="veh_passenger" depart="130.00" departLane="best" from="-370843837#4" to="915473795"/>
	<trip id="veh104" type="veh_passenger" depart="140.00" departLane="best" from="-769451692#0" to="-28928287#11"/>
	<trip id="veh105" type="veh_passenger" depart="150.00" departLane="best" from="370849789#0" to="370669690#7"/>
	<trip id="veh106" type="veh_passenger" depart="160.00" departLane="best" from="29711588" to="-29077739#0"/>
	<trip id="veh107" type="veh_passenger" depart="170.00" departLane="best" from="29892809" to="1270801042#12"/>
	<trip id="veh108" type="veh_passenger" depart="180.00" departLane="best" from="371318379#17" to="-371063784"/>
	<trip id="veh109" type="veh_passenger" depart="190.00" departLane="best" from="-29903581" to="29548333#2"/>
	<trip id="veh110" type="veh_passenger" depart="200.00" departLane="best" from="912552753" to="29549491"/>
	<trip id="veh111" type="veh_passenger" depart="210.00" departLane="best" from="1272673963" to="-933319333"/>
	<trip id="veh112" type="veh_passenger" depart="220.00" departLane="best" from="-927680292#0" to="-914926498#1"/>
	<trip id="veh113" type="veh_passenger" depart="230.00" departLane="best" from="-1133262922#0" to="-927077549#2"/>
	<trip id="veh114" type="veh_passenger" depart="240.00" departLane="best" from="-371063721" to="-371063773#1"/>
	<trip id="veh115" type="veh_passenger" depart="250.00" departLane="best" from="370154858#2" to="29056862#2"/>
	<trip id="veh116" type="veh_passenger" depart="260.00" departLane="best" from="-719057014#0" to="-915001546"/>
	<trip id="veh117" type="veh_passenger" depart="270.00" departLane="best" from="914068254" to="914592086#2"/>
	<trip id="veh118" type="veh_passenger" depart="280.00" departLane="best" from="29720244" to="-29056590#15"/>
	<trip id="veh119" type="veh_passenger" depart="290.00" departLane="best" from="-29144021#0" to="-310052925#7"/>
	<trip id="veh120" type="veh_passenger" depart="300.00" departLane="best" from="-1305399050" to="29892265#0"/>
	<trip id="veh121" type="veh_passenger" depart="310.00" departLane="best" from="-917398353" to="-371318326#0"/>
	<trip id="veh122" type="veh_passenger" depart="320.00" departLane="best" from="913508395#10" to="370845415#0"/>
	<trip id="veh123" type="veh_passenger" depart="330.00" departLane="best" from="29873810" to="29873713"/>
	<trip id="veh124" type="veh_passenger" depart="340.00" departLane="best" from="915060770#7" to="-371065197#4"/>
	<trip id="veh125" type="veh_passenger" depart="350.00" departLane="best" from="-29890549#3" to="-370678167#5"/>
	<trip id="veh126" type="veh_passenger" depart="360.00" departLane="best" from="-930875333" to="28852232#7"/>
	<trip id="veh127" type="veh_passenger" depart="370.00" departLane="best" from="370544071#1" to="915800971"/>
	<trip id="veh128" type="veh_passenger" depart="380.00" departLane="best" from="-918330445" to="29165835#23"/>
	<trip id="veh129" type="veh_passenger" depart="390.00" departLane="best" from="-29867287#1" to="-919028913#0"/>
	<trip id="veh130" type="veh_passenger" depart="400.00" departLane="best" from="29143912#0" to="370694954#3"/>
	<trip id="veh131" type="veh_passenger" depart="410.00" departLane="best" from="912552797#5" to="918304631"/>
	<trip id="veh132" type="veh_passenger" depart="420.00" departLane="best" from="370669719" to="1337082446"/>
	<trip id="veh133" type="veh_passenger" depart="430.00" departLane="best" from="-370286328" to="927077579#0"/>
	<trip id="veh134" type="veh_passenger" depart="440.00" departLane="best" from="-921924421" to="29868345"/>
	<trip id="veh135" type="veh_passenger" depart="450.00" departLane="best" from="371293437#0" to="-935754582"/>
	<trip id="veh136" type="veh_passenger" depart="460.00" departLane="best" from="-370282207#3" to="370843842#1"/>
	<trip id="veh137" type="veh_passenger" depart="470.00" departLane="best" from="919082118#1" to="924988469#2"/>
	<trip id="veh138" type="veh_passenger" depart="480.00" departLane="best" from="914572604" to="933832474#1"/>
	<trip id="veh139" type="veh_passenger" depart="490.00" departLane="best" from="-915060892" to="-930507573"/>
	<trip id="veh140" type="veh_passenger" depart="500.00" departLane="best" from="914580064#0" to="-927680284#5"/>
	<trip id="veh141" type="veh_passenger" depart="510.00" departLane="best" from="370284222#4" to="933319369"/>
	<trip id="veh142" type="veh_passenger" depart="520.00" departLane="best" from="370674308#0" to="-371293455"/>
	<trip id="veh143" type="veh_passenger" depart="530.00" departLane="best" from="370155411#0" to="932347855"/>
	<trip id="veh144" type="veh_passenger" depart="540.00" departLane="best" from="370678373#0" to="910324850#2"/>
	<trip id="veh145" type="veh_passenger" depart="550.00" departLane="best" from="1272194412" to="-921990015"/>
	<trip id="veh146" type="veh_passenger" depart="560.00" departLane="best" from="-371318037" to="-370694916#4"/>
	<trip id="veh147" type="veh_passenger" depart="570.00" departLane="best" from="918304602#1" to="-29895733#1"/>
	<trip id="veh148" type="veh_passenger" depart="580.00" departLane="best" from="930875317" to="934665348#2"/>
	<trip id="veh149" type="veh_passenger" depart="590.00" departLane="best" from="-923839270" to="913504388"/>
	<trip id="veh150" type="veh_passenger" depart="600.00" departLane="best" from="-370694441#12" to="-29164486#2"/>
	<trip id="veh151" type="veh_passenger" depart="610.00" departLane="best" from="-29317786" to="922056821#1"/>
	<trip id="veh152" type="veh_passenger" depart="620.00" departLane="best" from="-920714013" to="-327914738"/>
	<trip id="veh153" type="veh_passenger" depart="630.00" departLane="best" from="-926506932#2" to="923754277#29"/>
	<trip id="veh154" type="veh_passenger" depart="640.00" departLane="best" from="932722747#1" to="28938261#14"/>
	<trip id="veh155" type="veh_passenger" depart="650.00" departLane="best" from="370671674#0" to="29710020"/>
	<trip id="veh156" type="veh_passenger" depart="660.00" departLane="best" from="-370845509#3" to="922435393"/>
	<trip id="veh157" type="veh_passenger" depart="670.00" departLane="best" from="-1214787354" to="-29036181#0"/>
	<trip id="veh158" type="veh_passenger" depart="680.00" departLane="best" from="-371068231#0" to="370145495#0"/>
	<trip id="veh159" type="veh_passenger" depart="690.00" departLane="best" from="913051098" to="933708178"/>
	<trip id="veh160" type="veh_passenger" depart="700.00" departLane="best" from="-370282116#11" to="930969097"/>
	<trip id="veh161" type="veh_passenger" depart="710.00" departLane="best" from="370694494#0" to="922074370#1"/>
	<trip id="veh162" type="veh_passenger" depart="720.00" departLane="best" from="-924018480#0" to="918320653#17"/>
	<trip id="veh163" type="veh_passenger" depart="730.00" departLane="best" from="29875246" to="-29901652#2"/>
	<trip id="veh164" type="veh_passenger" depart="740.00" departLane="best" from="370816784#1" to="923588789"/>
	<trip id="veh165" type="veh_passenger" depart="750.00" departLane="best" from="914638107#0" to="926179881#2"/>
	<trip id="veh166" type="veh_passenger" depart="760.00" departLane="best" from="28852232#6" to="933114669#0"/>
	<trip id="veh167" type="veh_passenger" depart="770.00" departLane="best" from="769456110#1" to="-370155185#5"/>
	<trip id="veh168" type="veh_passenger" depart="780.00" departLane="best" from="371308460#1" to="29889025#2"/>
	<trip id="veh169" type="veh_passenger" depart="790.00" departLane="best" from="-371321320#1" to="1291649874"/>
	<trip id="veh170" type="veh_passenger" depart="800.00" departLane="best" from="918552968" to="-370694259#1"/>
	<trip id="veh171" type="veh_passenger" depart="810.00" departLane="best" from="-371318118#1" to="28838732#2"/>
	<trip id="veh172" type="veh_passenger" depart="820.00" departLane="best" from="933257259#18" to="-921897725#1"/>
	<trip id="veh173" type="veh_passenger" depart="830.00" departLane="best" from="-1214788071#0" to="-371443655#0"/>
	<trip id="veh174" type="veh_passenger" depart="840.00" departLane="best" from="-370528655#1" to="29077367#4"/>
	<trip id="veh175" type="veh_passenger" depart="850.00" departLane="best" from="-225759463#0" to="913504092"/>
	<trip id="veh176" type="veh_passenger" depart="860.00" departLane="best" from="-932709066" to="-29032963#0"/>
	<trip id="veh177" type="veh_passenger" depart="870.00" departLane="best" from="-29717326#3" to="-371293458#0"/>
	<trip id="veh178" type="veh_passenger" depart="880.00" departLane="best" from="-370817892" to="29058965#3"/>
	<trip id="veh179" type="veh_passenger" depart="890.00" departLane="best" from="-923839229#1" to="-918540547#1"/>
	<trip id="veh180" type="veh_passenger" depart="900.00" departLane="best" from="-927483340#4" to="219869069#5"/>
	<trip id="veh181" type="veh_passenger" depart="910.00" departLane="best" from="-931278473#4" to="29077553#10"/>
	<trip id="veh182" type="veh_passenger" depart="920.00" departLane="best" from="29873138#9" to="915056094"/>
	<trip id="veh183" type="veh_passenger" depart="930.00" departLane="best" from="370678165" to="226074025#7-AddedOffRampEdge"/>
	<trip id="veh184" type="veh_passenger" depart="940.00" departLane="best" from="370678178#10" to="-29548531#28"/>
	<trip id="veh185" type="veh_passenger" depart="950.00" departLane="best" from="-29869699#0" to="-913504055#1"/>
	<trip id="veh186" type="veh_passenger" depart="960.00" departLane="best" from="310187015#4" to="-370531915#6"/>
	<trip id="veh187" type="veh_passenger" depart="970.00" departLane="best" from="932354156#6" to="29874802#2"/>
	<trip id="veh188" type="veh_passenger" depart="980.00" departLane="best" from="-915473781" to="29031610#0"/>
	<trip id="veh189" type="veh_passenger" depart="990.00" departLane="best" from="-934747416" to="-29153163#0"/>
	<trip id="veh190" type="veh_passenger" depart="1000.00" departLane="best" from="-370669698#1" to="370817888"/>
	<trip id="veh191" type="veh_passenger" depart="1010.00" departLane="best" from="-29892288#0" to="-1061612161"/>
	<trip id="veh192" type="veh_passenger" depart="1020.00" departLane="best" from="370155416#0" to="623473825#1"/>
	<trip id="veh193" type="veh_passenger" depart="1030.00" departLane="best" from="757108400#13" to="-933319323#1"/>
	<trip id="veh194" type="veh_passenger" depart="1040.00" departLane="best" from="-935769683#1" to="29548333#8"/>
	<trip id="veh195" type="veh_passenger" depart="1050.00" departLane="best" from="930507603" to="-918536720"/>
	<trip id="veh196" type="veh_passenger" depart="1060.00" departLane="best" from="371318508#5" to="-369963708#0"/>
	<trip id="veh197" type="veh_passenger" depart="1070.00" departLane="best" from="918128527" to="-29076757#1"/>
	<trip id="veh198" type="veh_passenger" depart="1080.00" departLane="best" from="370844209#1" to="-915800973"/>
	<trip id="veh199" type="veh_passenger" depart="1090.00" departLane="best" from="-914952431" to="915060869#2"/>
	<trip id="veh200" type="veh_passenger" depart="1100.00" departLane="best" from="933114642#4" to="310186644#3"/>
	<trip id="veh201" type="veh_passenger" depart="1110.00" departLane="best" from="743162712#14" to="-923758060#1"/>
	<trip id="veh202" type="veh_passenger" depart="1120.00" departLane="best" from="-957491686" to="915001654#2"/>
	<trip id="veh203" type="veh_passenger" depart="1130.00" departLane="best" from="-922459292#0" to="-29152921#2"/>
	<trip id="veh204" type="veh_passenger" depart="1140.00" departLane="best" from="371051961" to="-370279124#1"/>
	<trip id="veh205" type="veh_passenger" depart="1150.00" departLane="best" from="-757107618" to="369798590#4"/>
	<trip id="veh206" type="veh_passenger" depart="1160.00" departLane="best" from="924988504" to="370809884#3"/>
	<trip id="veh207" type="veh_passenger" depart="1170.00" departLane="best" from="-370528818#1" to="-370678370"/>
	<trip id="veh208" type="veh_passenger" depart="1180.00" departLane="best" from="918680924#0" to="-29877369#1"/>
	<trip id="veh209" type="veh_passenger" depart="1190.00" departLane="best" from="-913508405#5" to="29142730#0"/>
	<trip id="veh210" type="veh_passenger" depart="1200.00" departLane="best" from="-370154845#7" to="29903106#0"/>
	<trip id="veh211" type="veh_passenger" depart="1210.00" departLane="best" from="769451712#2" to="933832471#14"/>
	<trip id="veh212" type="veh_passenger" depart="1220.00" departLane="best" from="931269339#5" to="370286335#8"/>
	<trip id="veh213" type="veh_passenger" depart="1230.00" departLane="best" from="925035587#1" to="-29716417#2"/>
	<trip id="veh214" type="veh_passenger" depart="1240.00" departLane="best" from="932417838#0" to="29712141#14"/>
	<trip id="veh215" type="veh_passenger" depart="1250.00" departLane="best" from="926171608#27" to="28938285#3"/>
	<trip id="veh216" type="veh_passenger" depart="1260.00" departLane="best" from="-310184465#8" to="-29896059#12"/>
	<trip id="veh217" type="veh_passenger" depart="1270.00" departLane="best" from="914922872" to="370694482#1"/>
	<trip id="veh218" type="veh_passenger" depart="1280.00" departLane="best" from="29057581#8" to="-370694634#24"/>
	<trip id="veh219" type="veh_passenger" depart="1290.00" departLane="best" from="-370844533" to="930943633"/>
	<trip id="veh220" type="veh_passenger" depart="1300.00" departLane="best" from="370678265" to="-921302261"/>
	<trip id="veh221" type="veh_passenger" depart="1310.00" departLane="best" from="-371318286" to="-369963759"/>
	<trip id="veh222" type="veh_passenger" depart="1320.00" departLane="best" from="1305246235" to="-1230810503"/>
	<trip id="veh223" type="veh_passenger" depart="1330.00" departLane="best" from="-371063717#0" to="-915800954"/>
	<trip id="veh224" type="veh_passenger" depart="1340.00" departLane="best" from="310030362#0" to="28928484#3"/>
	<trip id="veh225" type="veh_passenger" depart="1350.00" departLane="best" from="370845388#4" to="29158265#3"/>
	<trip id="veh226" type="veh_passenger" depart="1360.00" departLane="best" from="919028889#2" to="-915060820"/>
	<trip id="veh227" type="veh_passenger" depart="1370.00" departLane="best" from="-915060899" to="-371318091"/>
	<trip id="veh228" type="veh_passenger" depart="1380.00" departLane="best" from="-915001646" to="-1273246760"/>
	<trip id="veh229" type="veh_passenger" depart="1390.00" departLane="best" from="-932354163" to="370678180#1"/>
	<trip id="veh230" type="veh_passenger" depart="1400.00" departLane="best" from="370818042#2" to="29549430"/>
	<trip id="veh231" type="veh_passenger" depart="1410.00" departLane="best" from="-371068158#0" to="-29059484#4"/>
	<trip id="veh232" type="veh_passenger" depart="1420.00" departLane="best" from="922525481#1" to="922383855#1"/>
	<trip id="veh233" type="veh_passenger" depart="1430.00" departLane="best" from="-1059803890" to="915061028#7"/>
	<trip id="veh234" type="veh_passenger" depart="1440.00" departLane="best" from="-915334981#2" to="370844640#0"/>
	<trip id="veh235" type="veh_passenger" depart="1450.00" departLane="best" from="370154848#11" to="371068053#0"/>
	<trip id="veh236" type="veh_passenger" depart="1460.00" departLane="best" from="921661844" to="-29058504#0"/>
	<trip id="veh237" type="veh_passenger" depart="1470.00" departLane="best" from="-930875388" to="370845497#1"/>
	<trip id="veh238" type="veh_passenger" depart="1480.00" departLane="best" from="-370678158#3" to="913398660"/>
	<trip id="veh239" type="veh_passenger" depart="1490.00" departLane="best" from="918552982#1" to="-312662339#12"/>
	<trip id="veh240" type="veh_passenger" depart="1500.00" departLane="best" from="370844452#2" to="-918304682#5"/>
	<trip id="veh241" type="veh_passenger" depart="1510.00" departLane="best" from="-29032077#0" to="757099881#9"/>
	<trip id="veh242" type="veh_passenger" depart="1520.00" departLane="best" from="932347846#5" to="29165610#11"/>
	<trip id="veh243" type="veh_passenger" depart="1530.00" departLane="best" from="29906808#4" to="-918236598"/>
	<trip id="veh244" type="veh_passenger" depart="1540.00" departLane="best" from="-29142313#26" to="370531890#6"/>
	<trip id="veh245" type="veh_passenger" depart="1550.00" departLane="best" from="-370809927#3" to="-924988524#2"/>
	<trip id="veh246" type="veh_passenger" depart="1560.00" departLane="best" from="-371124484#0" to="-371318246#1"/>
	<trip id="veh247" type="veh_passenger" depart="1570.00" departLane="best" from="370844176#1" to="-29056953#1"/>
	<trip id="veh248" type="veh_passenger" depart="1580.00" departLane="best" from="-370844130#0" to="28851625#2"/>
	<trip id="veh249" type="veh_passenger" depart="1590.00" departLane="best" from="371293470#4" to="921310406#0"/>
	<trip id="veh250" type="veh_passenger" depart="1600.00" departLane="best" from="-370154525#8" to="913504178#0"/>
	<trip id="veh251" type="veh_passenger" depart="1610.00" departLane="best" from="29057581#6" to="29855537#1"/>
	<trip id="veh252" type="veh_passenger" depart="1620.00" departLane="best" from="-932544532#1" to="29153167#0"/>
	<trip id="veh253" type="veh_passenger" depart="1630.00" departLane="best" from="-918304625" to="29056778#3"/>
	<trip id="veh254" type="veh_passenger" depart="1640.00" departLane="best" from="678468832#4" to="-914129071#1"/>
	<trip id="veh255" type="veh_passenger" depart="1650.00" departLane="best" from="-918536709#1" to="-930910613"/>
	<trip id="veh256" type="veh_passenger" depart="1660.00" departLane="best" from="29548531#14" to="-921661793"/>
	<trip id="veh257" type="veh_passenger" depart="1670.00" departLane="best" from="-370531669#2" to="-915473846"/>
	<trip id="veh258" type="veh_passenger" depart="1680.00" departLane="best" from="29895514#1" to="-926493567"/>
	<trip id="veh259" type="veh_passenger" depart="1690.00" departLane="best" from="930910596" to="-935754564"/>
	<trip id="veh260" type="veh_passenger" depart="1700.00" departLane="best" from="-1136152590#0" to="-914934279"/>
	<trip id="veh261" type="veh_passenger" depart="1710.00" departLane="best" from="913371286#3" to="370138422#4"/>
	<trip id="veh262" type="veh_passenger" depart="1720.00" departLane="best" from="-918553000" to="926506879#5"/>
	<trip id="veh263" type="veh_passenger" depart="1730.00" departLane="best" from="-915061081#3" to="-370528773#1"/>
	<trip id="veh264" type="veh_passenger" depart="1740.00" departLane="best" from="370138668#2" to="370678178#4"/>
	<trip id="veh265" type="veh_passenger" depart="1750.00" departLane="best" from="371447453#1" to="-926035011#0"/>
	<trip id="veh266" type="veh_passenger" depart="1760.00" departLane="best" from="-371317891#3" to="219869069#8"/>
	<trip id="veh267" type="veh_passenger" depart="1770.00" departLane="best" from="371068287#0" to="370154895"/>
	<trip id="veh268" type="veh_passenger" depart="1780.00" departLane="best" from="-370809938#1" to="-29031819#11"/>