<?xml version="1.0" encoding="UTF-8"?>

<!-- generated on 2024-12-11 13:20:50.663592 by osmWebWizard.py v1_21_0+0000-d7b3b481c43
<configuration>
    <net-file value="C:\Users\Kisha\Sumo\2024-12-11-11-46-08\osm.net.xml.gz"/>
    <output-trip-file value="C:\Users\Kisha\Sumo\2024-12-11-11-46-08\osm.passenger.trips.xml"/>
    <route-file value="C:\Users\Kisha\Sumo\2024-12-11-11-46-08\osm.passenger.rou.xml"/>
    <prefix value="veh"/>
    <trip-attributes value="departLane=&quot;best&quot;"/>
    <fringe-start-attributes value="departSpeed=&quot;max&quot;"/>
    <vehicle-class value="passenger"/>
    <lanes value="True"/>
    <fringe-factor value="5"/>
    <allow-fringe.min-length value="1000.0"/>
    <via-edge-types value="highway.motorway,highway.motorway_link,highway.trunk_link,highway.primary_link,highway.secondary_link,highway.tertiary_link"/>
    <min-distance value="300.0"/>
    <min-distance.fringe value="10.0"/>
    <remove-loops value="True"/>
    <validate value="True"/>
    <insertion-density value="5.0"/>
</configuration>
-->

<!-- generated on 2024-12-11 12:55:12 by Eclipse SUMO duarouter Version 1.21.0
<duarouterConfiguration xmlns:xsi="http://www.w3.org/2001/XMLSchema-instance" xsi:noNamespaceSchemaLocation="http://sumo.dlr.de/xsd/duarouterConfiguration.xsd">

    <input>
        <net-file value="C:\Users\Kisha\Sumo\2024-12-11-11-46-08\osm.net.xml.gz"/>
        <route-files value="C:\Users\Kisha\Sumo\2024-12-11-11-46-08\osm.passenger.trips.xml"/>
    </input>

    <output>
        <output-file value="C:\Users\Kisha\Sumo\2024-12-11-11-46-08\osm.passenger.trips.xml.tmp"/>
        <alternatives-output value="NUL"/>
        <write-trips value="true"/>
    </output>

    <processing>
        <remove-loops value="true"/>
    </processing>

    <time>
        <begin value="0.0"/>
        <end value="3600.0"/>
    </time>

    <report>
        <no-warnings value="true"/>
        <ignore-errors value="true"/>
        <no-step-log value="true"/>
    </report>

</duarouterConfiguration>
-->

<routes xmlns:xsi="http://www.w3.org/2001/XMLSchema-instance" xsi:noNamespaceSchemaLocation="http://sumo.dlr.de/xsd/routes_file.xsd">
    <vType id="veh_passenger" vClass="passenger"/>
    <trip id="veh0" type="veh_passenger" depart="0.00" departLane="best" from="-370279142#4" to="-28937255#14"/>
    <trip id="veh1" type="veh_passenger" depart="0.14" departLane="best" from="-371317974" to="370843975"/>
    <trip id="veh2" type="veh_passenger" depart="0.28" departLane="best" from="-371068276#0" to="370694567#1"/>
    <trip id="veh3" type="veh_passenger" depart="0.41" departLane="best" from="921733260#2" to="-29716467"/>
    <trip id="veh4" type="veh_passenger" depart="0.55" departLane="best" from="-932354170#0" to="-29030809#1"/>
    <trip id="veh5" type="veh_passenger" depart="0.69" departLane="best" from="370823630" to="-29031569"/>
    <trip id="veh6" type="veh_passenger" depart="0.83" departLane="best" from="-28937321#1" to="-370694953#5"/>
    <trip id="veh7" type="veh_passenger" depart="0.96" departLane="best" from="370531665#14" to="29166589#17"/>
    <trip id="veh8" type="veh_passenger" depart="1.10" departLane="best" from="-370823734#0" to="29896139#0"/>
    <trip id="veh9" type="veh_passenger" depart="1.24" departLane="best" from="913056177" to="1132717781#1"/>
    <trip id="veh10" type="veh_passenger" depart="1.38" departLane="best" from="-912541672#3" to="370823459#1"/>
    <trip id="veh11" type="veh_passenger" depart="1.52" departLane="best" from="-917681751#5" to="-370155416#2"/>
    <trip id="veh12" type="veh_passenger" depart="1.65" departLane="best" from="29077851#10" to="915801061"/>
    <trip id="veh13" type="veh_passenger" depart="1.79" departLane="best" from="29868321" to="29873743#4"/>
    <trip id="veh14" type="veh_passenger" depart="1.93" departLane="best" from="915801006" to="310184465#1"/>
    <trip id="veh15" type="veh_passenger" depart="2.07" departLane="best" from="913051009#34" to="371063833"/>
    <trip id="veh16" type="veh_passenger" depart="2.21" departLane="best" from="29143062#16" to="-932916414"/>
    <trip id="veh17" type="veh_passenger" depart="2.34" departLane="best" from="-923588806" to="29549642#5"/>
    <trip id="veh18" type="veh_passenger" depart="2.48" departLane="best" from="914922929" to="-370129566#0"/>
    <trip id="veh19" type="veh_passenger" depart="2.62" departLane="best" from="310183527#6" to="29875904"/>
    <trip id="veh20" type="veh_passenger" depart="2.76" departLane="best" from="370843846#5" to="-29058293#2"/>
    <trip id="veh21" type="veh_passenger" depart="2.89" departLane="best" from="-370844259#3" to="-371445010#0"/>
    <trip id="veh22" type="veh_passenger" depart="3.03" departLane="best" from="-29699358#3" to="-370844681#3"/>
    <trip id="veh23" type="veh_passenger" depart="3.17" departLane="best" from="-29876546#1" to="-371318231#5"/>
    <trip id="veh24" type="veh_passenger" depart="3.31" departLane="best" from="370155228#0" to="921310477#0"/>
    <trip id="veh25" type="veh_passenger" depart="3.45" departLane="best" from="921898622#0" to="-370817806#2"/>
    <trip id="veh26" type="veh_passenger" depart="3.58" departLane="best" from="-371299807" to="926637183"/>
    <trip id="veh27" type="veh_passenger" depart="3.72" departLane="best" from="-370528842#1" to="327917396#1"/>
    <trip id="veh28" type="veh_passenger" depart="3.86" departLane="best" from="370531775#8" to="371063813#0"/>
    <trip id="veh29" type="veh_passenger" depart="4.00" departLane="best" from="-370528632#12" to="-923697059"/>
    <trip id="veh30" type="veh_passenger" depart="4.14" departLane="best" from="934186400#0" to="370282128"/>
    <trip id="veh31" type="veh_passenger" depart="4.27" departLane="best" from="29698679#1" to="370809905"/>
    <trip id="veh32" type="veh_passenger" depart="4.41" departLane="best" from="915334956#0" to="371447539#3"/>
    <trip id="veh33" type="veh_passenger" depart="4.55" departLane="best" from="370844456#7" to="-29031349#1"/>
    <trip id="veh34" type="veh_passenger" depart="4.69" departLane="best" from="914584305#0" to="-371299857#2"/>
    <trip id="veh35" type="veh_passenger" depart="4.82" departLane="best" from="-370817869" to="-927680275#0"/>
    <trip id="veh36" type="veh_passenger" depart="4.96" departLane="best" from="918648220#1" to="914572587#1"/>
    <trip id="veh37" type="veh_passenger" depart="5.10" departLane="best" from="370531912#0" to="-926150197#0"/>
    <trip id="veh38" type="veh_passenger" depart="5.24" departLane="best" from="924018529#7" to="1078191764#1"/>
    <trip id="veh39" type="veh_passenger" depart="5.38" departLane="best" from="-371299670#1" to="371063852#0"/>
    <trip id="veh40" type="veh_passenger" depart="5.51" departLane="best" from="29711266#1" to="-371293448#2"/>
    <trip id="veh41" type="veh_passenger" depart="5.65" departLane="best" from="29892572" to="922017669#1"/>
    <trip id="veh42" type="veh_passenger" depart="5.79" departLane="best" from="-926448707#1" to="370823685"/>
    <trip id="veh43" type="veh_passenger" depart="5.93" departLane="best" from="957535147#5" to="29034134#2"/>
    <trip id="veh44" type="veh_passenger" depart="6.07" departLane="best" from="-29857533#1" to="-29058599#5"/>
    <trip id="veh45" type="veh_passenger" depart="6.20" departLane="best" from="-29894751" to="-370154556"/>
    <trip id="veh46" type="veh_passenger" depart="6.34" departLane="best" from="743167250#2" to="-932358068#1"/>
    <trip id="veh47" type="veh_passenger" depart="6.48" departLane="best" from="-29164704#2" to="923839186"/>
    <trip id="veh48" type="veh_passenger" depart="6.62" departLane="best" from="935829225" to="29077299#0"/>
    <trip id="veh49" type="veh_passenger" depart="6.75" departLane="best" from="932844040#2" to="918117129#2"/>
    <trip id="veh50" type="veh_passenger" depart="6.89" departLane="best" from="-1272165381" to="370845489#1"/>
    <trip id="veh51" type="veh_passenger" depart="7.03" departLane="best" from="370694992#3" to="29153003#4"/>
    <trip id="veh52" type="veh_passenger" depart="7.17" departLane="best" from="-371299797#0" to="370282896#0"/>
    <trip id="veh53" type="veh_passenger" depart="7.31" departLane="best" from="29896059#20" to="-933247375"/>
    <trip id="veh54" type="veh_passenger" depart="7.44" departLane="best" from="1043326084" to="-930969057#0"/>
    <trip id="veh55" type="veh_passenger" depart="7.58" departLane="best" from="918648189" to="-371293471#3"/>
    <trip id="veh56" type="veh_passenger" depart="7.72" departLane="best" from="28938531#9" to="370669797#1"/>
    <trip id="veh57" type="veh_passenger" depart="7.86" departLane="best" from="-924008222" to="918494925#27"/>
    <trip id="veh58" type="veh_passenger" depart="8.00" departLane="best" from="757099865#0" to="370279126#1"/>
    <trip id="veh59" type="veh_passenger" depart="8.13" departLane="best" from="327916308#2" to="-370155145#0"/>
    <trip id="veh60" type="veh_passenger" depart="8.27" departLane="best" from="371318231#0" to="29163641#2"/>
    <trip id="veh61" type="veh_passenger" depart="8.41" departLane="best" from="430304450#4" to="-29077427#7"/>
    <trip id="veh62" type="veh_passenger" depart="8.55" departLane="best" from="-1043398562" to="-914995498#1"/>
    <trip id="veh63" type="veh_passenger" depart="8.68" departLane="best" from="255628737#12" to="926179129"/>
    <trip id="veh64" type="veh_passenger" depart="8.82" departLane="best" from="919032832" to="-914959895#1"/>
    <trip id="veh65" type="veh_passenger" depart="8.96" departLane="best" from="-913057141#1" to="-29077714#1"/>
    <trip id="veh66" type="veh_passenger" depart="9.10" departLane="best" from="-919028888#1" to="930507574#1"/>
    <trip id="veh67" type="veh_passenger" depart="9.24" departLane="best" from="-29713815#8" to="242832311#3"/>
    <trip id="veh68" type="veh_passenger" depart="9.37" departLane="best" from="-1120097793#0" to="371318078"/>
    <trip id="veh69" type="veh_passenger" depart="9.51" departLane="best" from="-371318433#1" to="324084286#2"/>
    <trip id="veh70" type="veh_passenger" depart="9.65" departLane="best" from="1305722537" to="29548598#4"/>
    <trip id="veh71" type="veh_passenger" depart="9.79" departLane="best" from="371299677" to="918536770#1"/>
    <trip id="veh72" type="veh_passenger" depart="9.93" departLane="best" from="-932366356" to="-370817934#1"/>
    <trip id="veh73" type="veh_passenger" depart="10.06" departLane="best" from="29163553#1" to="-371063844#0"/>
    <trip id="veh74" type="veh_passenger" depart="10.20" departLane="best" from="-370809101#1" to="-913504175"/>
    <trip id="veh75" type="veh_passenger" depart="10.34" departLane="best" from="935807434#10" to="370531665#4"/>
    <trip id="veh76" type="veh_passenger" depart="10.48" departLane="best" from="933319404" to="29057462#0"/>
    <trip id="veh77" type="veh_passenger" depart="10.61" departLane="best" from="-310057527#0" to="370844114"/>
    <trip id="veh78" type="veh_passenger" depart="10.75" departLane="best" from="-917315336#1" to="29895730#0"/>
    <trip id="veh79" type="veh_passenger" depart="10.89" departLane="best" from="-370844529#1" to="-370823727#5"/>
    <trip id="veh80" type="veh_passenger" depart="11.03" departLane="best" from="-29317990#11" to="370154855#7"/>
    <trip id="veh81" type="veh_passenger" depart="11.17" departLane="best" from="-370844454#0" to="-922111152#0"/>
    <trip id="veh82" type="veh_passenger" depart="11.30" departLane="best" from="918112200#2" to="-29317900#0"/>
    <trip id="veh83" type="veh_passenger" depart="11.44" departLane="best" from="-370845507#2" to="370678199"/>
    <trip id="veh84" type="veh_passenger" depart="11.58" departLane="best" from="-370818025#1" to="-369798548#2"/>
    <trip id="veh85" type="veh_passenger" depart="11.72" departLane="best" from="930967708#1" to="-29871400"/>
    <trip id="veh86" type="veh_passenger" depart="11.86" departLane="best" from="1291650094#1" to="678275754#3"/>
    <trip id="veh87" type="veh_passenger" depart="11.99" departLane="best" from="-913051033#2" to="-370678379#5"/>
    <trip id="veh88" type="veh_passenger" depart="12.13" departLane="best" from="29873813" to="932866132"/>
    <trip id="veh89" type="veh_passenger" depart="12.27" departLane="best" from="-932386185#1" to="1271643650"/>
    <trip id="veh90" type="veh_passenger" depart="12.41" departLane="best" from="371063807" to="370694263#8"/>
    <trip id="veh91" type="veh_passenger" depart="12.54" departLane="best" from="-933767632#0" to="-29875254#8"/>
    <trip id="veh92" type="veh_passenger" depart="12.68" departLane="best" from="-926637219#4" to="917398343#1"/>
    <trip id="veh93" type="veh_passenger" depart="12.82" departLane="best" from="918119198" to="-371068052#8"/>
    <trip id="veh94" type="veh_passenger" depart="12.96" departLane="best" from="-370678375#1" to="935769691"/>
    <trip id="veh95" type="veh_passenger" depart="13.10" departLane="best" from="-932354167#0" to="371318266#5"/>
    <trip id="veh96" type="veh_passenger" depart="13.23" departLane="best" from="371068115" to="925035597"/>
    <trip id="veh97" type="veh_passenger" depart="13.37" departLane="best" from="-933860457#9" to="918119166#1"/>
    <trip id="veh98" type="veh_passenger" depart="13.51" departLane="best" from="29548819#2" to="-29058996#2"/>
    <trip id="veh99" type="veh_passenger" depart="13.65" departLane="best" from="958072830" to="-915011525"/>
    <trip id="veh100" type="veh_passenger" depart="13.79" departLane="best" from="932761289#0" to="926088761"/>
    <trip id="veh101" type="veh_passenger" depart="13.92" departLane="best" from="915801116#0" to="-370528833#1"/>
    <trip id="veh102" type="veh_passenger" depart="14.06" departLane="best" from="-228638445#2" to="-370818010#1"/>
    <trip id="veh103" type="veh_passenger" depart="14.20" departLane="best" from="926527025#5" to="-29081030#15"/>
    <trip id="veh104" type="veh_passenger" depart="14.34" departLane="best" from="-923618346" to="933832468#3"/>
    <trip id="veh105" type="veh_passenger" depart="14.47" departLane="best" from="-371299682#8" to="913504398#22"/>
    <trip id="veh106" type="veh_passenger" depart="14.61" departLane="best" from="1043421464#1" to="932366343"/>
    <trip id="veh107" type="veh_passenger" depart="14.75" departLane="best" from="931345131" to="935807446#1"/>
    <trip id="veh108" type="veh_passenger" depart="14.89" departLane="best" from="29561785" to="370845373#0"/>
    <trip id="veh109" type="veh_passenger" depart="15.03" departLane="best" from="-370155388#1" to="743149957#17"/>
    <trip id="veh110" type="veh_passenger" depart="15.16" departLane="best" from="932722739" to="-29876783#0"/>
    <trip id="veh111" type="veh_passenger" depart="15.30" departLane="best" from="29165693#0" to="371293485#3"/>
    <trip id="veh112" type="veh_passenger" depart="15.44" departLane="best" from="-29077578#1" to="-29892047#0"/>
    <trip id="veh113" type="veh_passenger" depart="15.58" departLane="best" from="29030971#0" to="917678596#6"/>
    <trip id="veh114" type="veh_passenger" depart="15.72" departLane="best" from="-370279108#1" to="932354155"/>
    <trip id="veh115" type="veh_passenger" depart="15.85" departLane="best" from="-29699600" to="-370678154#1"/>
    <trip id="veh116" type="veh_passenger" depart="15.99" departLane="best" from="310023638#7" to="370694467#1"/>
    <trip id="veh117" type="veh_passenger" depart="16.13" departLane="best" from="370845388#0" to="310052901#3"/>
    <trip id="veh118" type="veh_passenger" depart="16.27" departLane="best" from="921663679#3" to="-371063833"/>
    <trip id="veh119" type="veh_passenger" depart="16.40" departLane="best" from="29909413#2" to="370129606#9"/>
    <trip id="veh120" type="veh_passenger" depart="16.54" departLane="best" from="-931269329" to="-29890998#5"/>
    <trip id="veh121" type="veh_passenger" depart="16.68" departLane="best" from="29058845#1" to="-926533988"/>
    <trip id="veh122" type="veh_passenger" depart="16.82" departLane="best" from="370816704#1" to="370844685#3"/>
    <trip id="veh123" type="veh_passenger" depart="16.96" departLane="best" from="-370847040" to="-926161905#1"/>
    <trip id="veh124" type="veh_passenger" depart="17.09" departLane="best" from="370678364#2" to="769454454#1"/>
    <trip id="veh125" type="veh_passenger" depart="17.23" departLane="best" from="-914584355#2" to="371299856#2"/>
    <trip id="veh126" type="veh_passenger" depart="17.37" departLane="best" from="29548696" to="1065839217"/>
    <trip id="veh127" type="veh_passenger" depart="17.51" departLane="best" from="957548830" to="-935829220#0"/>
    <trip id="veh128" type="veh_passenger" depart="17.65" departLane="best" from="-29549087#3" to="-370817989#1"/>
    <trip id="veh129" type="veh_passenger" depart="17.78" departLane="best" from="-371299682#8" to="926506936#0"/>
    <trip id="veh130" type="veh_passenger" depart="17.92" departLane="best" from="920697329" to="919039614#2"/>
    <trip id="veh131" type="veh_passenger" depart="18.06" departLane="best" from="-921733332#2" to="-370279125#1"/>
    <trip id="veh132" type="veh_passenger" depart="18.20" departLane="best" from="915001591#1" to="370823747#1"/>
    <trip id="veh133" type="veh_passenger" depart="18.33" departLane="best" from="369798410#0" to="933858712#24"/>
    <trip id="veh134" type="veh_passenger" depart="18.47" departLane="best" from="-370531865#1" to="1203035100"/>
    <trip id="veh135" type="veh_passenger" depart="18.61" departLane="best" from="-913504401" to="769443064#4"/>
    <trip id="veh136" type="veh_passenger" depart="18.75" departLane="best" from="370674102#1" to="-926966772"/>
    <trip id="veh137" type="veh_passenger" depart="18.89" departLane="best" from="-369963774#1" to="29908661#1"/>
    <trip id="veh138" type="veh_passenger" depart="19.02" departLane="best" from="-29892735#1" to="295573445"/>
    <trip id="veh139" type="veh_passenger" depart="19.16" departLane="best" from="-371317829#2" to="310184815#16"/>
    <trip id="veh140" type="veh_passenger" depart="19.30" departLane="best" from="-370845285" to="370816685#3"/>
    <trip id="veh141" type="veh_passenger" depart="19.44" departLane="best" from="370155160#18" to="-371293486#1"/>
    <trip id="veh142" type="veh_passenger" depart="19.58" departLane="best" from="28813567#2" to="-922106549#3"/>
    <trip id="veh143" type="veh_passenger" depart="19.71" departLane="best" from="915800890#0" to="-29866474#1"/>
    <trip id="veh144" type="veh_passenger" depart="19.85" departLane="best" from="1214792914#10" to="371318146"/>
    <trip id="veh145" type="veh_passenger" depart="19.99" departLane="best" from="-1061607863" to="371443358#2"/>
    <trip id="veh146" type="veh_passenger" depart="20.13" departLane="best" from="370155429#2" to="-371293402#0"/>
    <trip id="veh147" type="veh_passenger" depart="20.26" departLane="best" from="371077773#3" to="29549484#2"/>
    <trip id="veh148" type="veh_passenger" depart="20.40" departLane="best" from="-932681694#1" to="-1270303450"/>
    <trip id="veh149" type="veh_passenger" depart="20.54" departLane="best" from="-29556942#1" to="920729168"/>
    <trip id="veh150" type="veh_passenger" depart="20.68" departLane="best" from="922065644#13" to="29166752#34"/>
    <trip id="veh151" type="veh_passenger" depart="20.82" departLane="best" from="915001635#3" to="29890679#0"/>
    <trip id="veh152" type="veh_passenger" depart="20.95" departLane="best" from="-370154632#2" to="-310186223#1"/>
    <trip id="veh153" type="veh_passenger" depart="21.09" departLane="best" from="-913371285#2" to="922017683"/>
    <trip id="veh154" type="veh_passenger" depart="21.23" departLane="best" from="757108398#10" to="-918117126#1"/>
    <trip id="veh155" type="veh_passenger" depart="21.37" departLane="best" from="922017687#0" to="-370817817#1"/>
    <trip id="veh156" type="veh_passenger" depart="21.51" departLane="best" from="371068083" to="29877619#1"/>
    <trip id="veh157" type="veh_passenger" depart="21.64" departLane="best" from="455687808#0" to="-921222698#1"/>
    <trip id="veh158" type="veh_passenger" depart="21.78" departLane="best" from="-927080306" to="-370131890#9"/>
    <trip id="veh159" type="veh_passenger" depart="21.92" departLane="best" from="-370155227#0" to="926179877#18"/>
    <trip id="veh160" type="veh_passenger" depart="22.06" departLane="best" from="918222990#4" to="933216705#2"/>
    <trip id="veh161" type="veh_passenger" depart="22.19" departLane="best" from="-913371272" to="920697361"/>
    <trip id="veh162" type="veh_passenger" depart="22.33" departLane="best" from="-28928723#5" to="371068278#4"/>
    <trip id="veh163" type="veh_passenger" depart="22.47" departLane="best" from="-915349951" to="926179947"/>
    <trip id="veh164" type="veh_passenger" depart="22.61" departLane="best" from="921663684#11" to="-918169377#2"/>
    <trip id="veh165" type="veh_passenger" depart="22.75" departLane="best" from="-913371270#1" to="-371299799#0"/>
    <trip id="veh166" type="veh_passenger" depart="22.88" departLane="best" from="743149969#3" to="-29893621"/>
    <trip id="veh167" type="veh_passenger" depart="23.02" departLane="best" from="-918536764#0" to="917809453#1"/>
    <trip id="veh168" type="veh_passenger" depart="23.16" departLane="best" from="-370843870#5" to="913504398#1"/>
    <trip id="veh169" type="veh_passenger" depart="23.30" departLane="best" from="1123327664#2" to="-913051045#1"/>
    <trip id="veh170" type="veh_passenger" depart="23.44" departLane="best" from="757107616#19" to="-370844252#1"/>
    <trip id="veh171" type="veh_passenger" depart="23.57" departLane="best" from="-28928538#5" to="370694441#7"/>
    <trip id="veh172" type="veh_passenger" depart="23.71" departLane="best" from="-370849150#2" to="-29153725#7"/>
    <trip id="veh173" type="veh_passenger" depart="23.85" departLane="best" from="932680663#2" to="-371318304#1"/>
    <trip id="veh174" type="veh_passenger" depart="23.99" departLane="best" from="370284233#0" to="-926448725"/>
    <trip id="veh175" type="veh_passenger" depart="24.12" departLane="best" from="-933319419" to="29143083#1"/>
    <trip id="veh176" type="veh_passenger" depart="24.26" departLane="best" from="927016122" to="-29906992"/>
    <trip id="veh177" type="veh_passenger" depart="24.40" departLane="best" from="932813738#0" to="-370669795#1"/>
    <trip id="veh178" type="veh_passenger" depart="24.54" departLane="best" from="-932366343" to="-371299686#9"/>
    <trip id="veh179" type="veh_passenger" depart="24.68" departLane="best" from="29893890" to="-933239105"/>
    <trip id="veh180" type="veh_passenger" depart="24.81" departLane="best" from="-371063779#0" to="914135853"/>
    <trip id="veh181" type="veh_passenger" depart="24.95" departLane="best" from="-310186217#2" to="29036059#0"/>
    <trip id="veh182" type="veh_passenger" depart="25.09" departLane="best" from="-924018546#1" to="29875501"/>
    <trip id="veh183" type="veh_passenger" depart="25.23" departLane="best" from="-371077550#5" to="370844189#0"/>
    <trip id="veh184" type="veh_passenger" depart="25.37" departLane="best" from="-1043437814" to="-926051318#16"/>
    <trip id="veh185" type="veh_passenger" depart="25.50" departLane="best" from="29158241#10" to="370845446#1"/>
    <trip id="veh186" type="veh_passenger" depart="25.64" departLane="best" from="-371127319#5" to="370678322#0"/>
    <trip id="veh187" type="veh_passenger" depart="25.78" departLane="best" from="-921310401#1" to="-29312031#31"/>
    <trip id="veh188" type="veh_passenger" depart="25.92" departLane="best" from="370674143#0" to="915061000"/>
    <trip id="veh189" type="veh_passenger" depart="26.05" departLane="best" from="914135868" to="915801047#2"/>
    <trip id="veh190" type="veh_passenger" depart="26.19" departLane="best" from="370845459#4" to="769454467"/>
    <trip id="veh191" type="veh_passenger" depart="26.33" departLane="best" from="-913398656#2" to="928188109#2"/>
    <trip id="veh192" type="veh_passenger" depart="26.47" departLane="best" from="-926637204#4" to="630050615"/>
    <trip id="veh193" type="veh_passenger" depart="26.61" departLane="best" from="-310186220#3" to="932250841"/>
    <trip id="veh194" type="veh_passenger" depart="26.74" departLane="best" from="927077549#2" to="370694589#3"/>
    <trip id="veh195" type="veh_passenger" depart="26.88" departLane="best" from="922056808" to="-369981350#0"/>
    <trip id="veh196" type="veh_passenger" depart="27.02" departLane="best" from="-826554978#0" to="29317682#1"/>
    <trip id="veh197" type="veh_passenger" depart="27.16" departLane="best" from="-1043398531" to="371443382#4"/>
    <trip id="veh198" type="veh_passenger" depart="27.30" departLane="best" from="-932796619#1" to="29877352#2"/>
    <trip id="veh199" type="veh_passenger" depart="27.43" departLane="best" from="-370531893#0" to="1234956973#1"/>
    <trip id="veh200" type="veh_passenger" depart="27.57" departLane="best" from="-933843109#6" to="370818009#0"/>
    <trip id="veh201" type="veh_passenger" depart="27.71" departLane="best" from="1291662959#10" to="922040168#9"/>
    <trip id="veh202" type="veh_passenger" depart="27.85" departLane="best" from="757108397#7" to="-370531676#8"/>
    <trip id="veh203" type="veh_passenger" depart="27.98" departLane="best" from="29712097#5" to="29057142#2"/>
    <trip id="veh204" type="veh_passenger" depart="28.12" departLane="best" from="370155087#16" to="915800928#1"/>
    <trip id="veh205" type="veh_passenger" depart="28.26" departLane="best" from="913835371#4" to="371299815#1"/>
    <trip id="veh206" type="veh_passenger" depart="28.40" departLane="best" from="370694236#4" to="-370844108#0"/>
    <trip id="veh207" type="veh_passenger" depart="28.54" departLane="best" from="-370694964#0" to="28928717#3"/>
    <trip id="veh208" type="veh_passenger" depart="28.67" departLane="best" from="-371063772" to="1305714275"/>
    <trip id="veh209" type="veh_passenger" depart="28.81" departLane="best" from="917315336#1" to="-29548849#2"/>
    <trip id="veh210" type="veh_passenger" depart="28.95" departLane="best" from="930910648" to="370154834#3"/>
    <trip id="veh211" type="veh_passenger" depart="29.09" departLane="best" from="-370694545" to="-370818015#0"/>
    <trip id="veh212" type="veh_passenger" depart="29.23" departLane="best" from="28928683#7" to="371063700#4"/>
    <trip id="veh213" type="veh_passenger" depart="29.36" departLane="best" from="-370541416#4" to="-1112237930"/>
    <trip id="veh214" type="veh_passenger" depart="29.50" departLane="best" from="-371299800#0" to="-371318595#9"/>
    <trip id="veh215" type="veh_passenger" depart="29.64" departLane="best" from="29891970" to="-932417928#0"/>
    <trip id="veh216" type="veh_passenger" depart="29.78" departLane="best" from="-370544057#3" to="932250840"/>
    <trip id="veh217" type="veh_passenger" depart="29.91" departLane="best" from="29057560#9" to="-29058945#3"/>
    <trip id="veh218" type="veh_passenger" depart="30.05" departLane="best" from="-371068062#4" to="915801068#8"/>
    <trip id="veh219" type="veh_passenger" depart="30.19" departLane="best" from="1059803886#2" to="769456109#7"/>
    <trip id="veh220" type="veh_passenger" depart="30.33" departLane="best" from="-370674309#2" to="-933858748#0"/>
    <trip id="veh221" type="veh_passenger" depart="30.47" departLane="best" from="310030361#5" to="-930892867#2"/>
    <trip id="veh222" type="veh_passenger" depart="30.60" departLane="best" from="921733190" to="369798536#0"/>
    <trip id="veh223" type="veh_passenger" depart="30.74" departLane="best" from="370845436" to="29031412#36"/>
    <trip id="veh224" type="veh_passenger" depart="30.88" departLane="best" from="-914943615#1" to="29317673#2"/>
    <trip id="veh225" type="veh_passenger" depart="31.02" departLane="best" from="921989977#2" to="371293204"/>
    <trip id="veh226" type="veh_passenger" depart="31.15" departLane="best" from="1305412273" to="-371293171#21"/>
    <trip id="veh227" type="veh_passenger" depart="31.29" departLane="best" from="-371063868#0" to="-370279038"/>
    <trip id="veh228" type="veh_passenger" depart="31.43" departLane="best" from="371318431#3" to="29058650#0"/>
    <trip id="veh229" type="veh_passenger" depart="31.57" departLane="best" from="370143506" to="371318297"/>
    <trip id="veh230" type="veh_passenger" depart="31.71" departLane="best" from="-29561386#1" to="923720319#5"/>
    <trip id="veh231" type="veh_passenger" depart="31.84" departLane="best" from="-371308465#0" to="914707843"/>
    <trip id="veh232" type="veh_passenger" depart="31.98" departLane="best" from="29164072#1" to="-370129589#1"/>
    <trip id="veh233" type="veh_passenger" depart="32.12" departLane="best" from="-370844614#7" to="370817922#7"/>
    <trip id="veh234" type="veh_passenger" depart="32.26" departLane="best" from="370844003#0" to="-29165190#7"/>
    <trip id="veh235" type="veh_passenger" depart="32.40" departLane="best" from="-927680284#1" to="29165835#2"/>
    <trip id="veh236" type="veh_passenger" depart="32.53" departLane="best" from="930960053" to="-370816931#0"/>
    <trip id="veh237" type="veh_passenger" depart="32.67" departLane="best" from="-932243634#0" to="922074398#0"/>
    <trip id="veh238" type="veh_passenger" depart="32.81" departLane="best" from="29891562#1" to="370817987#2"/>
    <trip id="veh239" type="veh_passenger" depart="32.95" departLane="best" from="917809322#2" to="371318422#2"/>
    <trip id="veh240" type="veh_passenger" depart="33.08" departLane="best" from="-923754277#1" to="-1120319608"/>
    <trip id="veh241" type="veh_passenger" depart="33.22" departLane="best" from="-918536753" to="371299917#19"/>
    <trip id="veh242" type="veh_passenger" depart="33.36" departLane="best" from="917687480#1" to="-930969025"/>
    <trip id="veh243" type="veh_passenger" depart="33.50" departLane="best" from="931269306" to="371293474#0"/>
    <trip id="veh244" type="veh_passenger" depart="33.64" departLane="best" from="29311623" to="310183528#4"/>