<routes xmlns:xsi="http://www.w3.org/2001/XMLSchema-instance" xsi:noNamespaceSchemaLocation="http://sumo.dlr.de/xsd/routes_file.xsd">
	<vType id="veh_passenger" vClass="passenger"/>
	<trip id="veh0" type="veh_passenger" depart="0.00" departLane="best" from="29875742" to="-29873850"/>
	<trip id="veh1" type="veh_passenger" depart="2.50" departLane="best" from="-934172686#0" to="29895679#0"/>
	<trip id="veh2" type="veh_passenger" depart="5.00" departLane="best" from="29858940#1" to="29895711#0"/>
	<trip id="veh3" type="veh_passenger" depart="7.50" departLane="best" from="-29034328#7" to="29896139#2"/>
	<trip id="veh4" type="veh_passenger" depart="10.00" departLane="best" from="-29873054#5" to="-29895651#6"/>
	<trip id="veh5" type="veh_passenger" depart="12.50" departLane="best" from="29873281#1" to="-29166752#22"/>
	<trip id="veh6" type="veh_passenger" depart="15.00" departLane="best" from="29870918#9" to="29895852#2"/>
	<trip id="veh7" type="veh_passenger" depart="17.50" departLane="best" from="29035905#4" to="29895679#0"/>
	<trip id="veh8" type="veh_passenger" depart="20.00" departLane="best" from="-370143450" to="-29895679#0"/>
	<trip id="veh9" type="veh_passenger" depart="22.50" departLane="best" from="-921989973#0" to="-933123785"/>
	<trip id="veh10" type="veh_passenger" depart="25.00" departLane="best" from="310184010#0" to="29895879#1"/>
	<trip id="veh11" type="veh_passenger" depart="27.50" departLane="best" from="933239102" to="-370844621#2"/>
	<trip id="veh12" type="veh_passenger" depart="30.00" departLane="best" from="361899471#14" to="-29895409#7"/>
	<trip id="veh13" type="veh_passenger" depart="32.50" departLane="best" from="-757102098#1" to="29895804#2"/>
	<trip id="veh14" type="veh_passenger" depart="35.00" departLane="best" from="-29858762" to="29895497#9"/>
	<trip id="veh15" type="veh_passenger" depart="37.50" departLane="best" from="933239104" to="29895850#4"/>
	<trip id="veh16" type="veh_passenger" depart="40.00" departLane="best" from="-370138651#4" to="-29895677#1"/>
	<trip id="veh17" type="veh_passenger" depart="42.50" departLane="best" from="-370138605#0" to="370844621#1"/>
	<trip id="veh18" type="veh_passenger" depart="45.00" departLane="best" from="29858987#0" to="-29896624#2"/>
	<trip id="veh19" type="veh_passenger" depart="47.50" departLane="best" from="-370138429#2" to="29896202#0"/>
	<trip id="veh20" type="veh_passenger" depart="50.00" departLane="best" from="370138665#4" to="29896177#1"/>
	<trip id="veh21" type="veh_passenger" depart="52.50" departLane="best" from="933269870" to="29895867"/>
	<trip id="veh22" type="veh_passenger" depart="55.00" departLane="best" from="-371065195#0" to="-370844532"/>
	<trip id="veh23" type="veh_passenger" depart="57.50" departLane="best" from="29853840#1" to="-915056093"/>
	<trip id="veh24" type="veh_passenger" depart="60.00" departLane="best" from="370138562#0" to="29895850#4"/>
	<trip id="veh25" type="veh_passenger" depart="62.50" departLane="best" from="29870214" to="-29896124#7"/>
	<trip id="veh26" type="veh_passenger" depart="65.00" departLane="best" from="957544353" to="370844621#1"/>
	<trip id="veh27" type="veh_passenger" depart="67.50" departLane="best" from="-29853990#4" to="-369963783#1"/>
	<trip id="veh28" type="veh_passenger" depart="70.00" departLane="best" from="933225163#6" to="29895651#8"/>
	<trip id="veh29" type="veh_passenger" depart="72.50" departLane="best" from="29855485" to="29895497#22"/>
	<trip id="veh30" type="veh_passenger" depart="75.00" departLane="best" from="29032016" to="29896624#2"/>
	<trip id="veh31" type="veh_passenger" depart="77.50" departLane="best" from="921989963" to="-29895727#2"/>
	<trip id="veh32" type="veh_passenger" depart="80.00" departLane="best" from="-29719768#1" to="-29895575#0"/>
	<trip id="veh33" type="veh_passenger" depart="82.50" departLane="best" from="29873188#0" to="29895804#0"/>
	<trip id="veh34" type="veh_passenger" depart="85.00" departLane="best" from="-370138562#0" to="-29895810#1"/>
	<trip id="veh35" type="veh_passenger" depart="87.50" departLane="best" from="370138518#1" to="29895812#2"/>
	<trip id="veh36" type="veh_passenger" depart="90.00" departLane="best" from="-29871199" to="-29895867"/>
	<trip id="veh37" type="veh_passenger" depart="92.50" departLane="best" from="29868644#1" to="29895933"/>
	<trip id="veh38" type="veh_passenger" depart="95.00" departLane="best" from="-29032963#7" to="29895912#0"/>
	<trip id="veh39" type="veh_passenger" depart="97.50" departLane="best" from="-29873212#0" to="29895497#17"/>
	<trip id="veh40" type="veh_passenger" depart="100.00" departLane="best" from="371065188#1" to="-369963749"/>
	<trip id="veh41" type="veh_passenger" depart="102.50" departLane="best" from="371065197#1" to="29312028#3"/>
	<trip id="veh42" type="veh_passenger" depart="105.00" departLane="best" from="371051963" to="-369963805#0"/>
	<trip id="veh43" type="veh_passenger" depart="107.50" departLane="best" from="29868761" to="29895651#6"/>
	<trip id="veh44" type="veh_passenger" depart="110.00" departLane="best" from="-29035960#0" to="29895869"/>
	<trip id="veh45" type="veh_passenger" depart="112.50" departLane="best" from="-370138558#1" to="29895497#18"/>
	<trip id="veh46" type="veh_passenger" depart="115.00" departLane="best" from="-29034427#3" to="-29896124#3"/>
	<trip id="veh47" type="veh_passenger" depart="117.50" departLane="best" from="922051294#0" to="29895618#1"/>
	<trip id="veh48" type="veh_passenger" depart="120.00" departLane="best" from="29034391#3" to="-29895584#1"/>
	<trip id="veh49" type="veh_passenger" depart="122.50" departLane="best" from="-29031979" to="29895805#0"/>
	<trip id="veh50" type="veh_passenger" depart="125.00" departLane="best" from="933230247#1" to="-29895651#6"/>
	<trip id="veh51" type="veh_passenger" depart="127.50" departLane="best" from="-933230250#1" to="-29896317#0"/>
	<trip id="veh52" type="veh_passenger" depart="130.00" departLane="best" from="-370138579#0" to="-29895497#18"/>
	<trip id="veh53" type="veh_passenger" depart="132.50" departLane="best" from="29853829#2" to="933114643#6"/>
	<trip id="veh54" type="veh_passenger" depart="135.00" departLane="best" from="29855261#2" to="29896211"/>
	<trip id="veh55" type="veh_passenger" depart="137.50" departLane="best" from="29857947#0" to="-29896139#1"/>
	<trip id="veh56" type="veh_passenger" depart="140.00" departLane="best" from="29033330#5" to="-29166752#24"/>
	<trip id="veh57" type="veh_passenger" depart="142.50" departLane="best" from="370138499#1" to="1049299653"/>
	<trip id="veh58" type="veh_passenger" depart="145.00" departLane="best" from="29033034#6" to="-29895850#1"/>
	<trip id="veh59" type="veh_passenger" depart="147.50" departLane="best" from="-370138670#1" to="29896139#1"/>
	<trip id="veh60" type="veh_passenger" depart="150.00" departLane="best" from="-371051994#0" to="-29895737"/>
	<trip id="veh61" type="veh_passenger" depart="152.50" departLane="best" from="370138532" to="29896154#2"/>
	<trip id="veh62" type="veh_passenger" depart="155.00" departLane="best" from="-370138567#2" to="933114643#12"/>
	<trip id="veh63" type="veh_passenger" depart="157.50" departLane="best" from="-1043419597" to="-29895852#5"/>
	<trip id="veh64" type="veh_passenger" depart="160.00" departLane="best" from="-29034314#0" to="-29166752#23"/>
	<trip id="veh65" type="veh_passenger" depart="162.50" departLane="best" from="371065197#5" to="29895497#20"/>
	<trip id="veh66" type="veh_passenger" depart="165.00" departLane="best" from="371065186#2" to="29312028#0"/>
	<trip id="veh67" type="veh_passenger" depart="167.50" departLane="best" from="-29859196" to="29896629"/>
	<trip id="veh68" type="veh_passenger" depart="170.00" departLane="best" from="29867287#2" to="29895888"/>
	<trip id="veh69" type="veh_passenger" depart="172.50" departLane="best" from="933239109#1" to="934674672#0"/>
	<trip id="veh70" type="veh_passenger" depart="175.00" departLane="best" from="-29857735#3" to="-29895804#2"/>
	<trip id="veh71" type="veh_passenger" depart="177.50" departLane="best" from="371051979" to="-29896124#3"/>
	<trip id="veh72" type="veh_passenger" depart="180.00" departLane="best" from="370138570#2" to="-29895804#1"/>
	<trip id="veh73" type="veh_passenger" depart="182.50" departLane="best" from="-29032968#11" to="29895661#0"/>
	<trip id="veh74" type="veh_passenger" depart="185.00" departLane="best" from="933230247#8" to="29895409#1"/>
	<trip id="veh75" type="veh_passenger" depart="187.50" departLane="best" from="29866635#3" to="-369963783#1"/>
	<trip id="veh76" type="veh_passenger" depart="190.00" departLane="best" from="-371051991#0" to="933114642#12"/>
	<trip id="veh77" type="veh_passenger" depart="192.50" departLane="best" from="29032963#7" to="-29895677#0"/>
	<trip id="veh78" type="veh_passenger" depart="195.00" departLane="best" from="-29034505#2" to="933114642#6"/>
	<trip id="veh79" type="veh_passenger" depart="197.50" departLane="best" from="-29035951#1" to="-29895814"/>
	<trip id="veh80" type="veh_passenger" depart="200.00" departLane="best" from="371065182#1" to="-29896154#2"/>
	<trip id="veh81" type="veh_passenger" depart="202.50" departLane="best" from="921930231#5" to="-29895852#1"/>
	<trip id="veh82" type="veh_passenger" depart="205.00" departLane="best" from="371051987#9" to="29895727#2"/>
	<trip id="veh83" type="veh_passenger" depart="207.50" departLane="best" from="-29032968#11" to="29895661#0"/>
	<trip id="veh84" type="veh_passenger" depart="210.00" departLane="best" from="-29034343#1" to="29895584#7"/>
	<trip id="veh85" type="veh_passenger" depart="212.50" departLane="best" from="-29142702#6" to="29895584#0"/>
	<trip id="veh86" type="veh_passenger" depart="215.00" departLane="best" from="29720012" to="-29895679#1"/>
	<trip id="veh87" type="veh_passenger" depart="217.50" departLane="best" from="29034255" to="-29895850#5"/>
	<trip id="veh88" type="veh_passenger" depart="220.00" departLane="best" from="-29857373#6" to="29896124#7"/>
	<trip id="veh89" type="veh_passenger" depart="222.50" departLane="best" from="1274888565" to="29895805#0"/>
	<trip id="veh90" type="veh_passenger" depart="225.00" departLane="best" from="-29032102#5" to="370844621#0"/>
	<trip id="veh91" type="veh_passenger" depart="227.50" departLane="best" from="29872077" to="-933123787#2"/>
	<trip id="veh92" type="veh_passenger" depart="230.00" departLane="best" from="370138536" to="933114642#12"/>
	<trip id="veh93" type="veh_passenger" depart="232.50" departLane="best" from="-370138644#4" to="29895497#13"/>
	<trip id="veh94" type="veh_passenger" depart="235.00" departLane="best" from="29871625#1" to="-29895584#7"/>
	<trip id="veh95" type="veh_passenger" depart="237.50" departLane="best" from="-85213314#4" to="-29312028#4"/>
	<trip id="veh96" type="veh_passenger" depart="240.00" departLane="best" from="29034328#8" to="-29166752#22"/>
	<trip id="veh97" type="veh_passenger" depart="242.50" departLane="best" from="-29142702#0" to="-29895409#1"/>
	<trip id="veh98" type="veh_passenger" depart="245.00" departLane="best" from="-1192840033#0" to="-797841578#0"/>
	<trip id="veh99" type="veh_passenger" depart="247.50" departLane="best" from="310184011#7" to="29895497#16"/>
	<trip id="veh100" type="veh_passenger" depart="250.00" departLane="best" from="29857886#1" to="29895497#11"/>
	<trip id="veh101" type="veh_passenger" depart="252.50" departLane="best" from="934172697" to="-29166752#20"/>
	<trip id="veh102" type="veh_passenger" depart="255.00" departLane="best" from="370138675#0" to="29896177#3"/>
	<trip id="veh103" type="veh_passenger" depart="257.50" departLane="best" from="29856157" to="-29895720#1"/>
	<trip id="veh104" type="veh_passenger" depart="260.00" departLane="best" from="371052012#0" to="29895733#2"/>
	<trip id="veh105" type="veh_passenger" depart="262.50" departLane="best" from="29720331#2" to="29896154#3"/>
	<trip id="veh106" type="veh_passenger" depart="265.00" departLane="best" from="921989941#1" to="-29895497#17"/>
	<trip id="veh107" type="veh_passenger" depart="267.50" departLane="best" from="-29033330#5" to="-29895850#1"/>
	<trip id="veh108" type="veh_passenger" depart="270.00" departLane="best" from="29871899#2" to="29896154#7"/>
	<trip id="veh109" type="veh_passenger" depart="272.50" departLane="best" from="-922051264" to="29895497#18"/>
	<trip id="veh110" type="veh_passenger" depart="275.00" departLane="best" from="29032938#3" to="29896124#5"/>
	<trip id="veh111" type="veh_passenger" depart="277.50" departLane="best" from="757101428#4" to="29895814"/>
	<trip id="veh112" type="veh_passenger" depart="280.00" departLane="best" from="-29855495" to="29895497#24"/>
	<trip id="veh113" type="veh_passenger" depart="282.50" departLane="best" from="29032964#2" to="29895674"/>
	<trip id="veh114" type="veh_passenger" depart="285.00" departLane="best" from="-1043419599" to="29895943#2"/>
	<trip id="veh115" type="veh_passenger" depart="287.50" departLane="best" from="370138512" to="-29895862"/>
	<trip id="veh116" type="veh_passenger" depart="290.00" departLane="best" from="29032965#0" to="-29895497#13"/>
	<trip id="veh117" type="veh_passenger" depart="292.50" departLane="best" from="933269871#1" to="29895810#0"/>
	<trip id="veh118" type="veh_passenger" depart="295.00" departLane="best" from="-934172697" to="29896154#7"/>
	<trip id="veh119" type="veh_passenger" depart="297.50" departLane="best" from="-370138477" to="-29895727#2"/>
	<trip id="veh120" type="veh_passenger" depart="300.00" departLane="best" from="361899458#5" to="-29166752#24"/>
	<trip id="veh121" type="veh_passenger" depart="302.50" departLane="best" from="-29870918#0" to="-29895541#0"/>
	<trip id="veh122" type="veh_passenger" depart="305.00" departLane="best" from="29871060#0" to="29895804#3"/>
	<trip id="veh123" type="veh_passenger" depart="307.50" departLane="best" from="371052008#1" to="29895730#1"/>
	<trip id="veh124" type="veh_passenger" depart="310.00" departLane="best" from="921930223#2" to="-29895879#2"/>
	<trip id="veh125" type="veh_passenger" depart="312.50" departLane="best" from="818305718" to="29895567#0"/>
	<trip id="veh126" type="veh_passenger" depart="315.00" departLane="best" from="29869699#4" to="-29895611#1"/>
	<trip id="veh127" type="veh_passenger" depart="317.50" departLane="best" from="-29034486" to="-29895497#17"/>
	<trip id="veh128" type="veh_passenger" depart="320.00" departLane="best" from="371052001#2" to="29895804#2"/>
	<trip id="veh129" type="veh_passenger" depart="322.50" departLane="best" from="-310184008#0" to="369963769"/>
	<trip id="veh130" type="veh_passenger" depart="325.00" departLane="best" from="29873134#11" to="-29896217"/>
	<trip id="veh131" type="veh_passenger" depart="327.50" departLane="best" from="-934172721" to="29895852#2"/>
	<trip id="veh132" type="veh_passenger" depart="330.00" departLane="best" from="-933216704#19" to="-29895497#23"/>
	<trip id="veh133" type="veh_passenger" depart="332.50" departLane="best" from="932761288#4" to="-29896154#2"/>
	<trip id="veh134" type="veh_passenger" depart="335.00" departLane="best" from="-260814730#2" to="-29895611#1"/>
	<trip id="veh135" type="veh_passenger" depart="337.50" departLane="best" from="-29855102#0" to="-29895759#2"/>
	<trip id="veh136" type="veh_passenger" depart="340.00" departLane="best" from="29853818#5" to="-29895409#3"/>
	<trip id="veh137" type="veh_passenger" depart="342.50" departLane="best" from="-1059803886#1" to="29312028#9"/>
	<trip id="veh138" type="veh_passenger" depart="345.00" departLane="best" from="-29858611" to="-29895622#0"/>
	<trip id="veh139" type="veh_passenger" depart="347.50" departLane="best" from="29032904#10" to="29895850#3"/>
	<trip id="veh140" type="veh_passenger" depart="350.00" departLane="best" from="-370138644#1" to="-29895734#0"/>
	<trip id="veh141" type="veh_passenger" depart="352.50" departLane="best" from="370138525#1" to="933114642#9"/>
	<trip id="veh142" type="veh_passenger" depart="355.00" departLane="best" from="-1214772052#1" to="29896124#7"/>
	<trip id="veh143" type="veh_passenger" depart="357.50" departLane="best" from="757101429#1" to="29896139#0"/>
	<trip id="veh144" type="veh_passenger" depart="360.00" departLane="best" from="29034201#0" to="29895888"/>
	<trip id="veh145" type="veh_passenger" depart="362.50" departLane="best" from="934172679" to="-370844621#1"/>
	<trip id="veh146" type="veh_passenger" depart="365.00" departLane="best" from="-29034387#7" to="-29896139#2"/>
	<trip id="veh147" type="veh_passenger" depart="367.50" departLane="best" from="29032963#1" to="-29895651#11"/>
	<trip id="veh148" type="veh_passenger" depart="370.00" departLane="best" from="370138429#3" to="29312028#8"/>
	<trip id="veh149" type="veh_passenger" depart="372.50" departLane="best" from="-29034328#6" to="29895850#1"/>
	<trip id="veh150" type="veh_passenger" depart="375.00" departLane="best" from="29034410#1" to="29312028#4"/>
	<trip id="veh151" type="veh_passenger" depart="377.50" departLane="best" from="-29857373#5" to="-29312028#1"/>
	<trip id="veh152" type="veh_passenger" depart="380.00" departLane="best" from="-371051994#0" to="933114642#9"/>
	<trip id="veh153" type="veh_passenger" depart="382.50" departLane="best" from="757107613#6" to="-29896154#7"/>
	<trip id="veh154" type="veh_passenger" depart="385.00" departLane="best" from="29857886#1" to="-797841580"/>
	<trip id="veh155" type="veh_passenger" depart="387.50" departLane="best" from="29867224#0" to="-29895682#0"/>
	<trip id="veh156" type="veh_passenger" depart="390.00" departLane="best" from="921989990" to="29895651#4"/>
	<trip id="veh157" type="veh_passenger" depart="392.50" departLane="best" from="-933216704#0" to="-29895720#0"/>
	<trip id="veh158" type="veh_passenger" depart="395.00" departLane="best" from="-371051963" to="29896175#1"/>
	<trip id="veh159" type="veh_passenger" depart="397.50" departLane="best" from="-370138447" to="933114642#4"/>
	<trip id="veh160" type="veh_passenger" depart="400.00" departLane="best" from="-29034278#1" to="29896154#3"/>
	<trip id="veh161" type="veh_passenger" depart="402.50" departLane="best" from="29854007" to="-29895852#1"/>
	<trip id="veh162" type="veh_passenger" depart="405.00" departLane="best" from="-29032017" to="-29895679#0"/>
	<trip id="veh163" type="veh_passenger" depart="407.50" departLane="best" from="1316335748" to="29895804#3"/>
	<trip id="veh164" type="veh_passenger" depart="410.00" departLane="best" from="-29032005#3" to="-29895661#0"/>
	<trip id="veh165" type="veh_passenger" depart="412.50" departLane="best" from="-933269856" to="29896139#2"/>
	<trip id="veh166" type="veh_passenger" depart="415.00" departLane="best" from="-934172692" to="29895584#5"/>
	<trip id="veh167" type="veh_passenger" depart="417.50" departLane="best" from="1059803886#0" to="29895852#8"/>
	<trip id="veh168" type="veh_passenger" depart="420.00" departLane="best" from="-371052000#25" to="29895850#0"/>
	<trip id="veh169" type="veh_passenger" depart="422.50" departLane="best" from="29860618" to="29166752#23"/>
	<trip id="veh170" type="veh_passenger" depart="425.00" departLane="best" from="29033330#14" to="-1049299642"/>
	<trip id="veh171" type="veh_passenger" depart="427.50" departLane="best" from="29720227" to="-29895817"/>
	<trip id="veh172" type="veh_passenger" depart="430.00" departLane="best" from="-29034391#1" to="-29312028#2"/>
	<trip id="veh173" type="veh_passenger" depart="432.50" departLane="best" from="29142702#0" to="29896304#1"/>
	<trip id="veh174" type="veh_passenger" depart="435.00" departLane="best" from="29869498#3" to="29895850#0"/>
	<trip id="veh175" type="veh_passenger" depart="437.50" departLane="best" from="918680939#1" to="-29896139#1"/>
	<trip id="veh176" type="veh_passenger" depart="440.00" departLane="best" from="29156863#2" to="29895727#0"/>
	<trip id="veh177" type="veh_passenger" depart="442.50" departLane="best" from="361899458#8" to="-29896609#0"/>
	<trip id="veh178" type="veh_passenger" depart="445.00" departLane="best" from="29034335#0" to="29895651#10"/>
	<trip id="veh179" type="veh_passenger" depart="447.50" departLane="best" from="757101440#11" to="-29895677#0"/>
	<trip id="veh180" type="veh_passenger" depart="450.00" departLane="best" from="833120936#8" to="29896124#5"/>
	<trip id="veh181" type="veh_passenger" depart="452.50" departLane="best" from="29855261#0" to="-29896154#6"/>
	<trip id="veh182" type="veh_passenger" depart="455.00" departLane="best" from="933225158#2" to="933114642#11"/>
	<trip id="veh183" type="veh_passenger" depart="457.50" departLane="best" from="29869498#2" to="-29896177#3"/>
	<trip id="veh184" type="veh_passenger" depart="460.00" departLane="best" from="-29032022" to="-29896646"/>
	<trip id="veh185" type="veh_passenger" depart="462.50" departLane="best" from="934172716" to="29896177#3"/>
	<trip id="veh186" type="veh_passenger" depart="465.00" departLane="best" from="921930226#10" to="29896321"/>
	<trip id="veh187" type="veh_passenger" depart="467.50" departLane="best" from="-934172720" to="29896177#0"/>
	<trip id="veh188" type="veh_passenger" depart="470.00" departLane="best" from="-29719421#15" to="-29895901#1"/>
	<trip id="veh189" type="veh_passenger" depart="472.50" departLane="best" from="370138536" to="-29312028#6"/>
	<trip id="veh190" type="veh_passenger" depart="475.00" departLane="best" from="-29858762" to="29896202#0"/>
	<trip id="veh191" type="veh_passenger" depart="477.50" departLane="best" from="260814726#4" to="-29895409#5"/>
	<trip id="veh192" type="veh_passenger" depart="480.00" departLane="best" from="-371051977" to="-29166752#24"/>
	<trip id="veh193" type="veh_passenger" depart="482.50" departLane="best" from="371052000#25" to="-29895651#2"/>
	<trip id="veh194" type="veh_passenger" depart="485.00" departLane="best" from="29033034#2" to="-29895901#0"/>
	<trip id="veh195" type="veh_passenger" depart="487.50" departLane="best" from="370138477" to="-29895497#15"/>
	<trip id="veh196" type="veh_passenger" depart="490.00" departLane="best" from="757102090#2" to="-1049299642"/>
	<trip id="veh197" type="veh_passenger" depart="492.50" departLane="best" from="370138645#0" to="29895852#8"/>
	<trip id="veh198" type="veh_passenger" depart="495.00" departLane="best" from="933230247#5" to="29895879#0"/>
	<trip id="veh199" type="veh_passenger" depart="497.50" departLane="best" from="29873158" to="-29895409#6"/>
	<trip id="veh200" type="veh_passenger" depart="500.00" departLane="best" from="371065182#0" to="-29312028#5"/>
</routes>
