<?xml version="1.0" encoding="UTF-8"?>

<!-- generated on 2024-12-11 12:29:25.312282 by osmWebWizard.py v1_21_0+0000-d7b3b481c43
<configuration>
    <net-file value="C:\Users\Kisha\Sumo\2024-12-11-11-46-08\osm.net.xml.gz"/>
    <output-trip-file value="C:\Users\Kisha\Sumo\2024-12-11-11-46-08\osm.motorcycle.trips.xml"/>
    <route-file value="C:\Users\Kisha\Sumo\2024-12-11-11-46-08\osm.motorcycle.rou.xml"/>
    <prefix value="motorcycle"/>
    <trip-attributes value="departLane=&quot;best&quot;"/>
    <fringe-start-attributes value="departSpeed=&quot;max&quot;"/>
    <vehicle-class value="motorcycle"/>
    <fringe-factor value="2"/>
    <vclass value="motorcycle"/>
    <via-edge-types value="highway.motorway,highway.motorway_link,highway.trunk_link,highway.primary_link,highway.secondary_link,highway.tertiary_link"/>
    <max-distance value="1200.0"/>
    <remove-loops value="True"/>
    <validate value="True"/>
    <insertion-density value="4.0"/>
</configuration>
-->

<!-- generated on 2024-12-11 12:28:39 by Eclipse SUMO duarouter Version 1.21.0
<duarouterConfiguration xmlns:xsi="http://www.w3.org/2001/XMLSchema-instance" xsi:noNamespaceSchemaLocation="http://sumo.dlr.de/xsd/duarouterConfiguration.xsd">

    <input>
        <net-file value="C:\Users\Kisha\Sumo\2024-12-11-11-46-08\osm.net.xml.gz"/>
        <route-files value="C:\Users\Kisha\Sumo\2024-12-11-11-46-08\osm.motorcycle.trips.xml"/>
    </input>

    <output>
        <output-file value="C:\Users\Kisha\Sumo\2024-12-11-11-46-08\osm.motorcycle.trips.xml.tmp"/>
        <alternatives-output value="NUL"/>
        <write-trips value="true"/>
    </output>

    <processing>
        <remove-loops value="true"/>
    </processing>

    <time>
        <begin value="0.0"/>
        <end value="3600.0"/>
    </time>

    <report>
        <no-warnings value="true"/>
        <ignore-errors value="true"/>
        <no-step-log value="true"/>
    </report>

</duarouterConfiguration>
-->

<routes xmlns:xsi="http://www.w3.org/2001/XMLSchema-instance" xsi:noNamespaceSchemaLocation="http://sumo.dlr.de/xsd/routes_file.xsd">
    <vType id="motorcycle_motorcycle" vClass="motorcycle"/>
    <trip id="motorcycle0" type="motorcycle_motorcycle" depart="0.00" departLane="best" from="29877905" to="921989948#2"/>
    <trip id="motorcycle1" type="motorcycle_motorcycle" depart="0.17" departLane="best" from="933114639#3" to="369963819#1"/>
    <trip id="motorcycle2" type="motorcycle_motorcycle" depart="0.33" departLane="best" from="-954796470#0" to="-922428209"/>
    <trip id="motorcycle3" type="motorcycle_motorcycle" depart="0.50" departLane="best" from="935470555#0" to="769443060#2"/>
    <trip id="motorcycle4" type="motorcycle_motorcycle" depart="0.67" departLane="best" from="921663684#10" to="327914879#1"/>
    <trip id="motorcycle5" type="motorcycle_motorcycle" depart="0.84" departLane="best" from="1270806536#11" to="371077578"/>
    <trip id="motorcycle6" type="motorcycle_motorcycle" depart="1.00" departLane="best" from="28937639#7" to="370279096"/>
    <trip id="motorcycle7" type="motorcycle_motorcycle" depart="1.17" departLane="best" from="29058008#2" to="-933771098"/>
    <trip id="motorcycle8" type="motorcycle_motorcycle" depart="1.34" departLane="best" from="-370816766" to="-370817002#1"/>
    <trip id="motorcycle9" type="motorcycle_motorcycle" depart="1.67" departLane="best" from="-371068141" to="371068228#1"/>
    <trip id="motorcycle10" type="motorcycle_motorcycle" depart="1.84" departLane="best" from="-29856458#3" to="-29871683"/>
    <trip id="motorcycle11" type="motorcycle_motorcycle" depart="2.01" departLane="best" from="-371051989#0" to="-29720634#1"/>
    <trip id="motorcycle12" type="motorcycle_motorcycle" depart="2.17" departLane="best" from="370669688#1" to="-370155434#11"/>
    <trip id="motorcycle13" type="motorcycle_motorcycle" depart="2.34" departLane="best" from="370279092#3" to="-28937380#5"/>
    <trip id="motorcycle14" type="motorcycle_motorcycle" depart="2.51" departLane="best" from="-370531676#16" to="370541419#4"/>
    <trip id="motorcycle15" type="motorcycle_motorcycle" depart="2.67" departLane="best" from="-743167237" to="-371308386#9"/>
    <trip id="motorcycle16" type="motorcycle_motorcycle" depart="2.84" departLane="best" from="-371308462#4" to="-371299893#1"/>
    <trip id="motorcycle17" type="motorcycle_motorcycle" depart="3.01" departLane="best" from="370845499#0" to="-29058966"/>
    <trip id="motorcycle18" type="motorcycle_motorcycle" depart="3.18" departLane="best" from="922106549#1" to="29906032#0"/>
    <trip id="motorcycle19" type="motorcycle_motorcycle" depart="3.34" departLane="best" from="-225538657#0" to="29036179#7"/>
    <trip id="motorcycle20" type="motorcycle_motorcycle" depart="3.51" departLane="best" from="933118144#13" to="-29166568#14"/>
    <trip id="motorcycle21" type="motorcycle_motorcycle" depart="3.68" departLane="best" from="-370138421#3" to="310184007#0"/>
    <trip id="motorcycle22" type="motorcycle_motorcycle" depart="3.85" departLane="best" from="933319339" to="935829228"/>
    <trip id="motorcycle23" type="motorcycle_motorcycle" depart="4.01" departLane="best" from="-370528783" to="371318018#1"/>
    <trip id="motorcycle24" type="motorcycle_motorcycle" depart="4.18" departLane="best" from="370809101#0" to="310182435#8"/>
    <trip id="motorcycle25" type="motorcycle_motorcycle" depart="4.35" departLane="best" from="29077213#3" to="370823723#3"/>
    <trip id="motorcycle26" type="motorcycle_motorcycle" depart="4.51" departLane="best" from="371299919#0" to="310054587#6"/>
    <trip id="motorcycle27" type="motorcycle_motorcycle" depart="4.68" departLane="best" from="370694629#1" to="932417817"/>
    <trip id="motorcycle28" type="motorcycle_motorcycle" depart="4.85" departLane="best" from="29164378#0" to="-28839854#7"/>
    <trip id="motorcycle29" type="motorcycle_motorcycle" depart="5.02" departLane="best" from="743156695#4" to="370844709#7"/>
    <trip id="motorcycle30" type="motorcycle_motorcycle" depart="5.18" departLane="best" from="29030799#7" to="-29858987#1"/>
    <trip id="motorcycle31" type="motorcycle_motorcycle" depart="5.35" departLane="best" from="-29855564#1" to="29031872#4"/>
    <trip id="motorcycle32" type="motorcycle_motorcycle" depart="5.52" departLane="best" from="370694911#10" to="-371075974#2"/>
    <trip id="motorcycle33" type="motorcycle_motorcycle" depart="5.85" departLane="best" from="926529544" to="-28937217#9"/>
    <trip id="motorcycle34" type="motorcycle_motorcycle" depart="6.02" departLane="best" from="1271381209" to="371077550#9"/>
    <trip id="motorcycle35" type="motorcycle_motorcycle" depart="6.19" departLane="best" from="-370844281#0" to="-926171635#1"/>
    <trip id="motorcycle36" type="motorcycle_motorcycle" depart="6.35" departLane="best" from="371447679#0" to="-957564353"/>
    <trip id="motorcycle37" type="motorcycle_motorcycle" depart="6.52" departLane="best" from="-370816686" to="-370816689#11"/>
    <trip id="motorcycle38" type="motorcycle_motorcycle" depart="6.69" departLane="best" from="-29714186#4" to="-29875847#0"/>
    <trip id="motorcycle39" type="motorcycle_motorcycle" depart="6.85" departLane="best" from="-919079114#4" to="370694598#13"/>
    <trip id="motorcycle40" type="motorcycle_motorcycle" depart="7.02" departLane="best" from="29077858#25" to="924008223#3"/>
    <trip id="motorcycle41" type="motorcycle_motorcycle" depart="7.19" departLane="best" from="930643157#0" to="914584383#2"/>
    <trip id="motorcycle42" type="motorcycle_motorcycle" depart="7.36" departLane="best" from="769456108#9" to="-933319417"/>
    <trip id="motorcycle43" type="motorcycle_motorcycle" depart="7.52" departLane="best" from="29059453#0" to="370845309"/>
    <trip id="motorcycle44" type="motorcycle_motorcycle" depart="7.69" departLane="best" from="29709818" to="29709655#15"/>
    <trip id="motorcycle45" type="motorcycle_motorcycle" depart="7.86" departLane="best" from="-370823460#1" to="-29058848#2"/>
    <trip id="motorcycle46" type="motorcycle_motorcycle" depart="8.02" departLane="best" from="930875332" to="-930875326"/>
    <trip id="motorcycle47" type="motorcycle_motorcycle" depart="8.19" departLane="best" from="371052000#17" to="932761289#4"/>
    <trip id="motorcycle48" type="motorcycle_motorcycle" depart="8.36" departLane="best" from="921989991" to="-29867224#0"/>
    <trip id="motorcycle49" type="motorcycle_motorcycle" depart="8.53" departLane="best" from="-370678211#1" to="370817805#2"/>
    <trip id="motorcycle50" type="motorcycle_motorcycle" depart="8.69" departLane="best" from="-928223799#2" to="370284222#2"/>
    <trip id="motorcycle51" type="motorcycle_motorcycle" depart="8.86" departLane="best" from="-371299920#1" to="371308366#4"/>
    <trip id="motorcycle52" type="motorcycle_motorcycle" depart="9.03" departLane="best" from="-370678267#1" to="-370678364#1"/>
    <trip id="motorcycle53" type="motorcycle_motorcycle" depart="9.19" departLane="best" from="-29901264#6" to="-29890755#10"/>
    <trip id="motorcycle54" type="motorcycle_motorcycle" depart="9.36" departLane="best" from="-371068287#0" to="-370694633#4"/>
    <trip id="motorcycle55" type="motorcycle_motorcycle" depart="9.53" departLane="best" from="927402133" to="-370279110#0"/>
    <trip id="motorcycle56" type="motorcycle_motorcycle" depart="9.70" departLane="best" from="-371063764" to="-917398378#2"/>
    <trip id="motorcycle57" type="motorcycle_motorcycle" depart="9.86" departLane="best" from="29059480#12" to="-29058802"/>
    <trip id="motorcycle58" type="motorcycle_motorcycle" depart="10.03" departLane="best" from="370674217#0" to="-370694634#22"/>
    <trip id="motorcycle59" type="motorcycle_motorcycle" depart="10.20" departLane="best" from="370823757#3" to="-370155149"/>
    <trip id="motorcycle60" type="motorcycle_motorcycle" depart="10.37" departLane="best" from="-921733200#0" to="769451711#22"/>
    <trip id="motorcycle61" type="motorcycle_motorcycle" depart="10.53" departLane="best" from="-29548819#1" to="-29549511"/>
    <trip id="motorcycle62" type="motorcycle_motorcycle" depart="10.70" departLane="best" from="29031200#0" to="29030799#32"/>
    <trip id="motorcycle63" type="motorcycle_motorcycle" depart="10.87" departLane="best" from="-370823717#1" to="371318391#1"/>
    <trip id="motorcycle64" type="motorcycle_motorcycle" depart="11.03" departLane="best" from="370845330" to="-915801072#3"/>
    <trip id="motorcycle65" type="motorcycle_motorcycle" depart="11.20" departLane="best" from="29909352" to="1305239438#5"/>
    <trip id="motorcycle66" type="motorcycle_motorcycle" depart="11.37" departLane="best" from="-917809382" to="371318273#1"/>
    <trip id="motorcycle67" type="motorcycle_motorcycle" depart="11.54" departLane="best" from="926035010" to="-932680653"/>
    <trip id="motorcycle68" type="motorcycle_motorcycle" depart="11.70" departLane="best" from="371318368#1" to="-914707846"/>
    <trip id="motorcycle69" type="motorcycle_motorcycle" depart="11.87" departLane="best" from="921941185#0" to="918330413#1"/>
    <trip id="motorcycle70" type="motorcycle_motorcycle" depart="12.04" departLane="best" from="1202255312#0" to="327915279"/>
    <trip id="motorcycle71" type="motorcycle_motorcycle" depart="12.20" departLane="best" from="-935807446#0" to="-915801001"/>
    <trip id="motorcycle72" type="motorcycle_motorcycle" depart="12.37" departLane="best" from="-1271938602" to="370138678#3"/>
    <trip id="motorcycle73" type="motorcycle_motorcycle" depart="12.54" departLane="best" from="-371063853#0" to="921661845#10"/>
    <trip id="motorcycle74" type="motorcycle_motorcycle" depart="12.71" departLane="best" from="933268571#2" to="-932778367#0"/>
    <trip id="motorcycle75" type="motorcycle_motorcycle" depart="12.87" departLane="best" from="923754263#0" to="856537368#0"/>
    <trip id="motorcycle76" type="motorcycle_motorcycle" depart="13.04" departLane="best" from="-370154837#1" to="28839726#7"/>
    <trip id="motorcycle77" type="motorcycle_motorcycle" depart="13.21" departLane="best" from="-369963773" to="926179898#6"/>
    <trip id="motorcycle78" type="motorcycle_motorcycle" depart="13.37" departLane="best" from="28928500#16" to="29317810"/>
    <trip id="motorcycle79" type="motorcycle_motorcycle" depart="13.54" departLane="best" from="370155434#2" to="957548281"/>
    <trip id="motorcycle80" type="motorcycle_motorcycle" depart="13.71" departLane="best" from="-29077349#1" to="371318317#0"/>
    <trip id="motorcycle81" type="motorcycle_motorcycle" depart="13.88" departLane="best" from="-370154624#0" to="28937667#2"/>
    <trip id="motorcycle82" type="motorcycle_motorcycle" depart="14.04" departLane="best" from="-1060454671#0" to="-29058984#1"/>
    <trip id="motorcycle83" type="motorcycle_motorcycle" depart="14.21" departLane="best" from="-28928481#1" to="370816870#1"/>
    <trip id="motorcycle84" type="motorcycle_motorcycle" depart="14.38" departLane="best" from="-242832339#1" to="-918314353#4"/>
    <trip id="motorcycle85" type="motorcycle_motorcycle" depart="14.54" departLane="best" from="-927077582#1" to="-926637264"/>
    <trip id="motorcycle86" type="motorcycle_motorcycle" depart="14.71" departLane="best" from="930910632" to="-327915289#0"/>
    <trip id="motorcycle87" type="motorcycle_motorcycle" depart="14.88" departLane="best" from="-369963724#1" to="-927077549#2"/>
    <trip id="motorcycle88" type="motorcycle_motorcycle" depart="15.05" departLane="best" from="29058928#0" to="29058618#4"/>
    <trip id="motorcycle89" type="motorcycle_motorcycle" depart="15.21" departLane="best" from="370845358#3" to="369798442"/>
    <trip id="motorcycle90" type="motorcycle_motorcycle" depart="15.38" departLane="best" from="-370845379" to="-935829199"/>
    <trip id="motorcycle91" type="motorcycle_motorcycle" depart="15.55" departLane="best" from="29904028" to="-29895867"/>
    <trip id="motorcycle92" type="motorcycle_motorcycle" depart="15.71" departLane="best" from="369798502#0" to="-913106977"/>
    <trip id="motorcycle93" type="motorcycle_motorcycle" depart="15.88" departLane="best" from="-918121323#1" to="957543119#1"/>
    <trip id="motorcycle94" type="motorcycle_motorcycle" depart="16.05" departLane="best" from="-370694429" to="-370694548#5"/>
    <trip id="motorcycle95" type="motorcycle_motorcycle" depart="16.22" departLane="best" from="933752016" to="933752025"/>
    <trip id="motorcycle96" type="motorcycle_motorcycle" depart="16.38" departLane="best" from="29561531" to="-921663648"/>
    <trip id="motorcycle97" type="motorcycle_motorcycle" depart="16.55" departLane="best" from="-29718496#4" to="1209426552#0"/>
    <trip id="motorcycle98" type="motorcycle_motorcycle" depart="16.72" departLane="best" from="-370531753" to="915001557"/>
    <trip id="motorcycle99" type="motorcycle_motorcycle" depart="16.88" departLane="best" from="-370818153" to="370279125#2"/>
    <trip id="motorcycle100" type="motorcycle_motorcycle" depart="17.05" departLane="best" from="-925177070#0" to="-370531899#18"/>
    <trip id="motorcycle101" type="motorcycle_motorcycle" depart="17.22" departLane="best" from="-370823540" to="1191984848#2"/>
    <trip id="motorcycle102" type="motorcycle_motorcycle" depart="17.39" departLane="best" from="29561643#2" to="-29166100#4"/>
    <trip id="motorcycle103" type="motorcycle_motorcycle" depart="17.55" departLane="best" from="933319404" to="-370845368"/>
    <trip id="motorcycle104" type="motorcycle_motorcycle" depart="17.72" departLane="best" from="370282156" to="-926966750"/>
    <trip id="motorcycle105" type="motorcycle_motorcycle" depart="17.89" departLane="best" from="-370129547" to="29317658#2"/>
    <trip id="motorcycle106" type="motorcycle_motorcycle" depart="18.06" departLane="best" from="-29165891#2" to="932347841#2"/>
    <trip id="motorcycle107" type="motorcycle_motorcycle" depart="18.22" departLane="best" from="29034016#2" to="-29872763#2"/>
    <trip id="motorcycle108" type="motorcycle_motorcycle" depart="18.39" departLane="best" from="-930643166" to="-923839259"/>
    <trip id="motorcycle109" type="motorcycle_motorcycle" depart="18.56" departLane="best" from="29875246" to="-29873743#2"/>
    <trip id="motorcycle110" type="motorcycle_motorcycle" depart="18.72" departLane="best" from="-370669695#3" to="-957548831"/>
    <trip id="motorcycle111" type="motorcycle_motorcycle" depart="18.89" departLane="best" from="370694247#1" to="-932866166"/>
    <trip id="motorcycle112" type="motorcycle_motorcycle" depart="19.23" departLane="best" from="-923758064#0" to="-923747916#2"/>
    <trip id="motorcycle113" type="motorcycle_motorcycle" depart="19.39" departLane="best" from="-29909315#5" to="370844468#6"/>
    <trip id="motorcycle114" type="motorcycle_motorcycle" depart="19.56" departLane="best" from="-935807421" to="-371318256#1"/>
    <trip id="motorcycle115" type="motorcycle_motorcycle" depart="19.73" departLane="best" from="930910681" to="-371299707#0"/>
    <trip id="motorcycle116" type="motorcycle_motorcycle" depart="19.89" departLane="best" from="369963761#1" to="933114642#7"/>
    <trip id="motorcycle117" type="motorcycle_motorcycle" depart="20.06" departLane="best" from="370286356#7" to="370528678"/>
    <trip id="motorcycle118" type="motorcycle_motorcycle" depart="20.23" departLane="best" from="-29030838#9" to="-370138636#1"/>
    <trip id="motorcycle119" type="motorcycle_motorcycle" depart="20.40" departLane="best" from="552709326#15" to="370528825#2"/>
    <trip id="motorcycle120" type="motorcycle_motorcycle" depart="20.56" departLane="best" from="371318491#0" to="370845481#7"/>
    <trip id="motorcycle121" type="motorcycle_motorcycle" depart="20.73" departLane="best" from="29057286#4" to="-371063698#8"/>
    <trip id="motorcycle122" type="motorcycle_motorcycle" depart="21.06" departLane="best" from="370678156#4" to="-927077522"/>
    <trip id="motorcycle123" type="motorcycle_motorcycle" depart="21.23" departLane="best" from="370844447#2" to="-370844585#0"/>
    <trip id="motorcycle124" type="motorcycle_motorcycle" depart="21.40" departLane="best" from="-29057560#4" to="-29030838#2"/>
    <trip id="motorcycle125" type="motorcycle_motorcycle" depart="21.57" departLane="best" from="-370816927#1" to="370844223#3"/>
    <trip id="motorcycle126" type="motorcycle_motorcycle" depart="21.73" departLane="best" from="-924988532#6" to="-856537367"/>
    <trip id="motorcycle127" type="motorcycle_motorcycle" depart="22.07" departLane="best" from="921733215" to="310066066#22"/>
    <trip id="motorcycle128" type="motorcycle_motorcycle" depart="22.23" departLane="best" from="-29548512#22" to="369981353#1"/>
    <trip id="motorcycle129" type="motorcycle_motorcycle" depart="22.40" departLane="best" from="310052904#1" to="-930910684#1"/>
    <trip id="motorcycle130" type="motorcycle_motorcycle" depart="22.57" departLane="best" from="29876546#13" to="933858718"/>
    <trip id="motorcycle131" type="motorcycle_motorcycle" depart="22.74" departLane="best" from="931345107" to="913056198#0"/>
    <trip id="motorcycle132" type="motorcycle_motorcycle" depart="22.90" departLane="best" from="371299800#0" to="924008250"/>
    <trip id="motorcycle133" type="motorcycle_motorcycle" depart="23.07" departLane="best" from="930507530" to="-923839229#1"/>
    <trip id="motorcycle134" type="motorcycle_motorcycle" depart="23.24" departLane="best" from="-29059475#0" to="370845439#2"/>
    <trip id="motorcycle135" type="motorcycle_motorcycle" depart="23.40" departLane="best" from="928223798" to="-370528624#6"/>
    <trip id="motorcycle136" type="motorcycle_motorcycle" depart="23.57" departLane="best" from="29036059#1" to="-957543117"/>
    <trip id="motorcycle137" type="motorcycle_motorcycle" depart="23.74" departLane="best" from="926506881#9" to="370279109#2"/>
    <trip id="motorcycle138" type="motorcycle_motorcycle" depart="23.91" departLane="best" from="-29894082#11" to="-29892538#2"/>
    <trip id="motorcycle139" type="motorcycle_motorcycle" depart="24.07" departLane="best" from="-29058658#6" to="-29057098#0"/>
    <trip id="motorcycle140" type="motorcycle_motorcycle" depart="24.24" departLane="best" from="923618358" to="-29875953#0"/>
    <trip id="motorcycle141" type="motorcycle_motorcycle" depart="24.41" departLane="best" from="370694909#9" to="918494924#31"/>
    <trip id="motorcycle142" type="motorcycle_motorcycle" depart="24.58" departLane="best" from="-29058879#2" to="370845487#2"/>
    <trip id="motorcycle143" type="motorcycle_motorcycle" depart="24.74" departLane="best" from="-743149957#18" to="-913504163#0"/>
    <trip id="motorcycle144" type="motorcycle_motorcycle" depart="24.91" departLane="best" from="29077417#1" to="29077258#2"/>
    <trip id="motorcycle145" type="motorcycle_motorcycle" depart="25.08" departLane="best" from="914638102#0" to="-29077345#7"/>
    <trip id="motorcycle146" type="motorcycle_motorcycle" depart="25.41" departLane="best" from="-922042861#1" to="915334971#1"/>
    <trip id="motorcycle147" type="motorcycle_motorcycle" depart="25.58" departLane="best" from="29548573#3" to="-930875326"/>
    <trip id="motorcycle148" type="motorcycle_motorcycle" depart="25.75" departLane="best" from="29903106#1" to="-370818012#1"/>
    <trip id="motorcycle149" type="motorcycle_motorcycle" depart="25.91" departLane="best" from="913056179" to="743162704#8"/>
    <trip id="motorcycle150" type="motorcycle_motorcycle" depart="26.08" departLane="best" from="-29031857#3" to="29032086#0"/>
    <trip id="motorcycle151" type="motorcycle_motorcycle" depart="26.25" departLane="best" from="-310052914" to="-921663649"/>
    <trip id="motorcycle152" type="motorcycle_motorcycle" depart="26.41" departLane="best" from="-370674265#2" to="-28938531#8"/>
    <trip id="motorcycle153" type="motorcycle_motorcycle" depart="26.58" departLane="best" from="933889044" to="371063780#0"/>
    <trip id="motorcycle154" type="motorcycle_motorcycle" depart="26.75" departLane="best" from="922044702#0" to="-29903207#1"/>
    <trip id="motorcycle155" type="motorcycle_motorcycle" depart="26.92" departLane="best" from="-371318272#0" to="-917809375"/>
    <trip id="motorcycle156" type="motorcycle_motorcycle" depart="27.08" departLane="best" from="743162699#3" to="913051111#3"/>
    <trip id="motorcycle157" type="motorcycle_motorcycle" depart="27.25" departLane="best" from="931269339#3" to="-930875353"/>
    <trip id="motorcycle158" type="motorcycle_motorcycle" depart="27.42" departLane="best" from="-29077116" to="914707858#1"/>
    <trip id="motorcycle159" type="motorcycle_motorcycle" depart="27.58" departLane="best" from="924600772" to="919084142"/>
    <trip id="motorcycle160" type="motorcycle_motorcycle" depart="27.75" departLane="best" from="932866095" to="-28852328#12"/>
    <trip id="motorcycle161" type="motorcycle_motorcycle" depart="27.92" departLane="best" from="310066066#32" to="1273303810#9"/>
    <trip id="motorcycle162" type="motorcycle_motorcycle" depart="28.09" departLane="best" from="371318004" to="-370809062"/>
    <trip id="motorcycle163" type="motorcycle_motorcycle" depart="28.25" departLane="best" from="-917315335#8" to="-370817930#1"/>
    <trip id="motorcycle164" type="motorcycle_motorcycle" depart="28.42" departLane="best" from="-915473941#1" to="-29058965#4"/>
    <trip id="motorcycle165" type="motorcycle_motorcycle" depart="28.59" departLane="best" from="-1305869388" to="310050172#12"/>
    <trip id="motorcycle166" type="motorcycle_motorcycle" depart="28.75" departLane="best" from="921989916" to="-921990011#0"/>
    <trip id="motorcycle167" type="motorcycle_motorcycle" depart="28.92" departLane="best" from="-921306604" to="-370528646"/>
    <trip id="motorcycle168" type="motorcycle_motorcycle" depart="29.09" departLane="best" from="932347838#5" to="-29144021#2"/>
    <trip id="motorcycle169" type="motorcycle_motorcycle" depart="29.26" departLane="best" from="29854316#3" to="371051977"/>
    <trip id="motorcycle170" type="motorcycle_motorcycle" depart="29.42" departLane="best" from="927680232#0" to="370678173#1"/>
    <trip id="motorcycle171" type="motorcycle_motorcycle" depart="29.59" departLane="best" from="-924018518#1" to="-918513922"/>
    <trip id="motorcycle172" type="motorcycle_motorcycle" depart="29.76" departLane="best" from="-371293490#4" to="371318501#1"/>
    <trip id="motorcycle173" type="motorcycle_motorcycle" depart="29.92" departLane="best" from="310063219#2" to="-260814726#6"/>
    <trip id="motorcycle174" type="motorcycle_motorcycle" depart="30.26" departLane="best" from="29561231#1" to="-932680656"/>
    <trip id="motorcycle175" type="motorcycle_motorcycle" depart="30.43" departLane="best" from="370674204#0" to="370849150#2"/>
    <trip id="motorcycle176" type="motorcycle_motorcycle" depart="30.59" departLane="best" from="29059487#16" to="370823545"/>
    <trip id="motorcycle177" type="motorcycle_motorcycle" depart="30.76" departLane="best" from="-933767610#1" to="370143518#1"/>
    <trip id="motorcycle178" type="motorcycle_motorcycle" depart="30.93" departLane="best" from="370674220#0" to="-28852898#1"/>
    <trip id="motorcycle179" type="motorcycle_motorcycle" depart="31.10" departLane="best" from="370694631#9" to="932866200#0"/>
    <trip id="motorcycle180" type="motorcycle_motorcycle" depart="31.43" departLane="best" from="-757099858#0" to="-29877655#0"/>
    <trip id="motorcycle181" type="motorcycle_motorcycle" depart="31.60" departLane="best" from="371077562#4" to="935829211#2"/>
    <trip id="motorcycle182" type="motorcycle_motorcycle" depart="31.76" departLane="best" from="29718954#2" to="-29876195#0"/>
    <trip id="motorcycle183" type="motorcycle_motorcycle" depart="31.93" departLane="best" from="371443380#1" to="371308452#8"/>
    <trip id="motorcycle184" type="motorcycle_motorcycle" depart="32.10" departLane="best" from="370155137#0" to="-370155224#1"/>
    <trip id="motorcycle185" type="motorcycle_motorcycle" depart="32.27" departLane="best" from="370816847#14" to="370844252#0"/>
    <trip id="motorcycle186" type="motorcycle_motorcycle" depart="32.43" departLane="best" from="-370154853#1" to="-370154807#2"/>
    <trip id="motorcycle187" type="motorcycle_motorcycle" depart="32.60" departLane="best" from="915056098" to="370678387#1"/>
    <trip id="motorcycle188" type="motorcycle_motorcycle" depart="32.77" departLane="best" from="-915473902" to="-29058960#1"/>
    <trip id="motorcycle189" type="motorcycle_motorcycle" depart="32.93" departLane="best" from="225645605#1" to="310062486#0"/>
    <trip id="motorcycle190" type="motorcycle_motorcycle" depart="33.10" departLane="best" from="932417957#1" to="371068243#3"/>
    <trip id="motorcycle191" type="motorcycle_motorcycle" depart="33.27" departLane="best" from="370138425#1" to="-29031920"/>
    <trip id="motorcycle192" type="motorcycle_motorcycle" depart="33.44" departLane="best" from="-29895497#26" to="29312031#13"/>
    <trip id="motorcycle193" type="motorcycle_motorcycle" depart="33.60" departLane="best" from="917809322#7" to="-371317888#3"/>
    <trip id="motorcycle194" type="motorcycle_motorcycle" depart="33.94" departLane="best" from="-370669695#8" to="-370669803#1"/>
    <trip id="motorcycle195" type="motorcycle_motorcycle" depart="34.10" departLane="best" from="-370823639#2" to="919032577#7"/>
    <trip id="motorcycle196" type="motorcycle_motorcycle" depart="34.27" departLane="best" from="925177064" to="-370843983"/>
    <trip id="motorcycle197" type="motorcycle_motorcycle" depart="34.44" departLane="best" from="-370669763#0" to="29057116#11"/>
    <trip id="motorcycle198" type="motorcycle_motorcycle" depart="34.61" departLane="best" from="-29875006#1" to="-930892845"/>
    <trip id="motorcycle199" type="motorcycle_motorcycle" depart="34.77" departLane="best" from="-927680284#12" to="927077553#1"/>
    <trip id="motorcycle200" type="motorcycle_motorcycle" depart="34.94" departLane="best" from="933756177" to="370669690#5"/>
    <trip id="motorcycle201" type="motorcycle_motorcycle" depart="35.11" departLane="best" from="-370674071" to="370694270#11"/>
    <trip id="motorcycle202" type="motorcycle_motorcycle" depart="35.27" departLane="best" from="-370818010#3" to="-370678274#1"/>
    <trip id="motorcycle203" type="motorcycle_motorcycle" depart="35.61" departLane="best" from="29059419#5" to="1271701014#0"/>
    <trip id="motorcycle204" type="motorcycle_motorcycle" depart="35.78" departLane="best" from="-370694523#0" to="370694249#7"/>
    <trip id="motorcycle205" type="motorcycle_motorcycle" depart="35.94" departLane="best" from="-370129548" to="-913504175"/>
    <trip id="motorcycle206" type="motorcycle_motorcycle" depart="36.11" departLane="best" from="310184813#4" to="914584385#1"/>
    <trip id="motorcycle207" type="motorcycle_motorcycle" depart="36.28" departLane="best" from="-914928520#1" to="914584366"/>
    <trip id="motorcycle208" type="motorcycle_motorcycle" depart="36.44" departLane="best" from="29711923#1" to="29716957#2"/>
    <trip id="motorcycle209" type="motorcycle_motorcycle" depart="36.61" departLane="best" from="370844585#1" to="370844588#2"/>
    <trip id="motorcycle210" type="motorcycle_motorcycle" depart="36.78" departLane="best" from="-370674194#1" to="371318566#1"/>
    <trip id="motorcycle211" type="motorcycle_motorcycle" depart="36.95" departLane="best" from="930910626#4" to="-930910599"/>
    <trip id="motorcycle212" type="motorcycle_motorcycle" depart="37.11" departLane="best" from="-933319329#0" to="-935835508#0"/>
    <trip id="motorcycle213" type="motorcycle_motorcycle" depart="37.28" departLane="best" from="-371293447#1" to="915060800#1"/>
    <trip id="motorcycle214" type="motorcycle_motorcycle" depart="37.45" departLane="best" from="921663673#13" to="-370129533#2"/>
    <trip id="motorcycle215" type="motorcycle_motorcycle" depart="37.61" departLane="best" from="29901460#4" to="1271899748#1"/>
    <trip id="motorcycle216" type="motorcycle_motorcycle" depart="37.78" departLane="best" from="-28928723#36" to="926527025#7"/>