<routes xmlns:xsi="http://www.w3.org/2001/XMLSchema-instance" xsi:noNamespaceSchemaLocation="http://sumo.dlr.de/xsd/routes_file.xsd">
	<vType id="veh_passenger" vClass="passenger"/>
	<trip id="veh0" type="veh_passenger" depart="0.00" departLane="best" from="29875742" to="-29873850"/>
	<trip id="veh1" type="veh_passenger" depart="1.00" departLane="best" from="918680933#1" to="-29896138"/>
	<trip id="veh2" type="veh_passenger" depart="2.00" departLane="best" from="921930206#2" to="29896138"/>
	<trip id="veh3" type="veh_passenger" depart="3.00" departLane="best" from="29142702#4" to="29896138"/>
	<trip id="veh4" type="veh_passenger" depart="4.00" departLane="best" from="757102089#5" to="29895497#24"/>
	<trip id="veh5" type="veh_passenger" depart="5.00" departLane="best" from="-29853864" to="-29895497#24"/>
	<trip id="veh6" type="veh_passenger" depart="6.00" departLane="best" from="-29855102#1" to="-29896138"/>
	<trip id="veh7" type="veh_passenger" depart="7.00" departLane="best" from="371052004#1" to="29895497#24"/>
	<trip id="veh8" type="veh_passenger" depart="8.00" departLane="best" from="-757102097#2" to="29896138"/>
	<trip id="veh9" type="veh_passenger" depart="9.00" departLane="best" from="-29719868" to="-29895497#23"/>
	<trip id="veh10" type="veh_passenger" depart="10.00" departLane="best" from="-29867322#0" to="-29895497#23"/>
	<trip id="veh11" type="veh_passenger" depart="11.00" departLane="best" from="757102089#8" to="29895497#24"/>
	<trip id="veh12" type="veh_passenger" depart="12.00" departLane="best" from="-29854369#1" to="29895497#24"/>
	<trip id="veh13" type="veh_passenger" depart="13.00" departLane="best" from="921989939#1" to="29896138"/>
	<trip id="veh14" type="veh_passenger" depart="14.00" departLane="best" from="-921930212" to="-29896138"/>
	<trip id="veh15" type="veh_passenger" depart="15.00" departLane="best" from="921930206#2" to="-29896138"/>
	<trip id="veh16" type="veh_passenger" depart="16.00" departLane="best" from="-29869498#1" to="-29896138"/>
	<trip id="veh17" type="veh_passenger" depart="17.00" departLane="best" from="921989939#0" to="-29896138"/>
	<trip id="veh18" type="veh_passenger" depart="18.00" departLane="best" from="29854316#2" to="29896138"/>
	<trip id="veh19" type="veh_passenger" depart="19.00" departLane="best" from="-29720012" to="-29895497#24"/>
	<trip id="veh20" type="veh_passenger" depart="20.00" departLane="best" from="921930200" to="-29895497#24"/>
	<trip id="veh21" type="veh_passenger" depart="21.00" departLane="best" from="371051957#0" to="-29895497#24"/>
	<trip id="veh22" type="veh_passenger" depart="22.00" departLane="best" from="757101428#4" to="-29895497#23"/>
	<trip id="veh23" type="veh_passenger" depart="23.00" departLane="best" from="-29860975#0" to="29895497#23"/>
	<trip id="veh24" type="veh_passenger" depart="24.00" departLane="best" from="371051975" to="-29896138"/>
	<trip id="veh25" type="veh_passenger" depart="25.00" departLane="best" from="759565134#1" to="29895497#24"/>
	<trip id="veh26" type="veh_passenger" depart="26.00" departLane="best" from="29142702#1" to="-29895497#23"/>
	<trip id="veh27" type="veh_passenger" depart="27.00" departLane="best" from="29869498#2" to="-29895497#24"/>
	<trip id="veh28" type="veh_passenger" depart="28.00" departLane="best" from="-371052012#0" to="-29895497#24"/>
	<trip id="veh29" type="veh_passenger" depart="29.00" departLane="best" from="29719836#0" to="-29895497#24"/>
	<trip id="veh30" type="veh_passenger" depart="30.00" departLane="best" from="-921930223#2" to="29895497#24"/>
	<trip id="veh31" type="veh_passenger" depart="31.00" departLane="best" from="-29878338#0" to="29895497#23"/>
	<trip id="veh32" type="veh_passenger" depart="32.00" departLane="best" from="-371052000#12" to="29895497#23"/>
	<trip id="veh33" type="veh_passenger" depart="33.00" departLane="best" from="918680916#1" to="29895497#24"/>
	<trip id="veh34" type="veh_passenger" depart="34.00" departLane="best" from="757102089#9" to="29895497#23"/>
	<trip id="veh35" type="veh_passenger" depart="35.00" departLane="best" from="-29720331#0" to="29895497#23"/>
	<trip id="veh36" type="veh_passenger" depart="36.00" departLane="best" from="371052000#23" to="29895497#24"/>
	<trip id="veh37" type="veh_passenger" depart="37.00" departLane="best" from="921930226#7" to="29895497#23"/>
	<trip id="veh38" type="veh_passenger" depart="38.00" departLane="best" from="29873157#3" to="-29896138"/>
	<trip id="veh39" type="veh_passenger" depart="39.00" departLane="best" from="-29873162" to="-29896138"/>
	<trip id="veh40" type="veh_passenger" depart="40.00" departLane="best" from="-29857533#1" to="29895497#24"/>
	<trip id="veh41" type="veh_passenger" depart="41.00" departLane="best" from="29858274" to="-29895497#24"/>
	<trip id="veh42" type="veh_passenger" depart="42.00" departLane="best" from="29870771#1" to="29896138"/>
	<trip id="veh43" type="veh_passenger" depart="43.00" departLane="best" from="757101429#3" to="-29895497#24"/>
	<trip id="veh44" type="veh_passenger" depart="44.00" departLane="best" from="-371052000#25" to="29895497#24"/>
	<trip id="veh45" type="veh_passenger" depart="45.00" departLane="best" from="29719836#0" to="-29896138"/>
	<trip id="veh46" type="veh_passenger" depart="46.00" departLane="best" from="918680932" to="29895497#23"/>
	<trip id="veh47" type="veh_passenger" depart="47.00" departLane="best" from="29854805#4" to="29896138"/>
	<trip id="veh48" type="veh_passenger" depart="48.00" departLane="best" from="29860618" to="29896138"/>
	<trip id="veh49" type="veh_passenger" depart="49.00" departLane="best" from="-29853840#1" to="-29895497#23"/>
	<trip id="veh50" type="veh_passenger" depart="50.00" departLane="best" from="29870918#11" to="-29896138"/>
	<trip id="veh51" type="veh_passenger" depart="51.00" departLane="best" from="921989941#0" to="29895497#24"/>
	<trip id="veh52" type="veh_passenger" depart="52.00" departLane="best" from="-29855261#8" to="29895497#24"/>
	<trip id="veh53" type="veh_passenger" depart="53.00" departLane="best" from="-29033330#14" to="29896138"/>
	<trip id="veh54" type="veh_passenger" depart="54.00" departLane="best" from="757101440#11" to="29895497#23"/>
	<trip id="veh55" type="veh_passenger" depart="55.00" departLane="best" from="-29859185" to="29895497#24"/>
	<trip id="veh56" type="veh_passenger" depart="56.00" departLane="best" from="757102097#0" to="-29896138"/>
	<trip id="veh57" type="veh_passenger" depart="57.00" departLane="best" from="921930223#2" to="-29895497#23"/>
	<trip id="veh58" type="veh_passenger" depart="58.00" departLane="best" from="29858436#2" to="29896138"/>
	<trip id="veh59" type="veh_passenger" depart="59.00" departLane="best" from="-29873203" to="-29895497#23"/>
	<trip id="veh60" type="veh_passenger" depart="60.00" departLane="best" from="29871492#1" to="29896138"/>
	<trip id="veh61" type="veh_passenger" depart="61.00" departLane="best" from="371051977" to="-29896138"/>
	<trip id="veh62" type="veh_passenger" depart="62.00" departLane="best" from="-371051959" to="29895497#24"/>
	<trip id="veh63" type="veh_passenger" depart="63.00" departLane="best" from="-29854805#2" to="-29895497#23"/>
	<trip id="veh64" type="veh_passenger" depart="64.00" departLane="best" from="29871683" to="-29895497#24"/>
	<trip id="veh65" type="veh_passenger" depart="65.00" departLane="best" from="-29720331#2" to="-29895497#24"/>
	<trip id="veh66" type="veh_passenger" depart="66.00" departLane="best" from="-29860368#0" to="-29896138"/>
	<trip id="veh67" type="veh_passenger" depart="67.00" departLane="best" from="921989938" to="-29895497#23"/>
	<trip id="veh68" type="veh_passenger" depart="68.00" departLane="best" from="29873138#6" to="29895497#23"/>
	<trip id="veh69" type="veh_passenger" depart="69.00" departLane="best" from="29873048#1" to="29896138"/>
	<trip id="veh70" type="veh_passenger" depart="70.00" departLane="best" from="921989974" to="-29895497#24"/>
	<trip id="veh71" type="veh_passenger" depart="71.00" departLane="best" from="371051987#8" to="29895497#23"/>
	<trip id="veh72" type="veh_passenger" depart="72.00" departLane="best" from="29878349" to="-29895497#24"/>
	<trip id="veh73" type="veh_passenger" depart="73.00" departLane="best" from="-921989940" to="-29896138"/>
	<trip id="veh74" type="veh_passenger" depart="74.00" departLane="best" from="29872391#1" to="-29896138"/>
	<trip id="veh75" type="veh_passenger" depart="75.00" departLane="best" from="-29719743" to="-29895497#24"/>
	<trip id="veh76" type="veh_passenger" depart="76.00" departLane="best" from="-918680936#2" to="-29896138"/>
	<trip id="veh77" type="veh_passenger" depart="77.00" departLane="best" from="-29869465" to="-29895497#24"/>
	<trip id="veh78" type="veh_passenger" depart="78.00" departLane="best" from="-371052000#17" to="-29896138"/>
	<trip id="veh79" type="veh_passenger" depart="79.00" departLane="best" from="29862953" to="-29896138"/>
	<trip id="veh80" type="veh_passenger" depart="80.00" departLane="best" from="29853990#7" to="29895497#23"/>
	<trip id="veh81" type="veh_passenger" depart="81.00" departLane="best" from="-918680935" to="29895497#23"/>
	<trip id="veh82" type="veh_passenger" depart="82.00" departLane="best" from="29873158" to="-29896138"/>
	<trip id="veh83" type="veh_passenger" depart="83.00" departLane="best" from="29854711#3" to="-29896138"/>
	<trip id="veh84" type="veh_passenger" depart="84.00" departLane="best" from="-29870918#4" to="-29896138"/>
	<trip id="veh85" type="veh_passenger" depart="85.00" departLane="best" from="-921930223#3" to="-29896138"/>
	<trip id="veh86" type="veh_passenger" depart="86.00" departLane="best" from="-932761298" to="29896138"/>
	<trip id="veh87" type="veh_passenger" depart="87.00" departLane="best" from="29720405#0" to="-29896138"/>
	<trip id="veh88" type="veh_passenger" depart="88.00" departLane="best" from="29876546#59" to="29895497#24"/>
	<trip id="veh89" type="veh_passenger" depart="89.00" departLane="best" from="29853990#3" to="-29896138"/>
	<trip id="veh90" type="veh_passenger" depart="90.00" departLane="best" from="-29859052" to="29896138"/>
	<trip id="veh91" type="veh_passenger" depart="91.00" departLane="best" from="29870918#0" to="-29895497#23"/>
	<trip id="veh92" type="veh_passenger" depart="92.00" departLane="best" from="-371052000#3" to="-29896138"/>
	<trip id="veh93" type="veh_passenger" depart="93.00" departLane="best" from="-29854347#1" to="-29895497#23"/>
	<trip id="veh94" type="veh_passenger" depart="94.00" departLane="best" from="29869948#0" to="-29896138"/>
	<trip id="veh95" type="veh_passenger" depart="95.00" departLane="best" from="921989991" to="-29895497#23"/>
	<trip id="veh96" type="veh_passenger" depart="96.00" departLane="best" from="-757102097#1" to="-29895497#23"/>
	<trip id="veh97" type="veh_passenger" depart="97.00" departLane="best" from="921930226#9" to="-29895497#23"/>
	<trip id="veh98" type="veh_passenger" depart="98.00" departLane="best" from="921989976#4" to="-29895497#23"/>
	<trip id="veh99" type="veh_passenger" depart="99.00" departLane="best" from="29859041" to="-29896138"/>
	<trip id="veh100" type="veh_passenger" depart="100.00" departLane="best" from="-371052000#20" to="29895497#23"/>
</routes>
