<?xml version="1.0" encoding="UTF-8"?>

<!-- generated on 2024-12-11 13:21:18.144702 by osmWebWizard.py v1_21_0+0000-d7b3b481c43
<configuration>
    <net-file value="C:\Users\Kisha\Sumo\2024-12-11-11-46-08\osm.net.xml.gz"/>
    <additional-files value="C:\Users\Kisha\Sumo\2024-12-11-11-46-08\osm_stops.add.xml,C:\Users\Kisha\Sumo\2024-12-11-11-46-08\osm_pt.rou.xml"/>
    <output-trip-file value="C:\Users\Kisha\Sumo\2024-12-11-11-46-08\osm.pedestrian.trips.xml"/>
    <route-file value="C:\Users\Kisha\Sumo\2024-12-11-11-46-08\osm.pedestrian.rou.xml"/>
    <persontrips value="True"/>
    <persontrip.walk-opposite-factor value="0.8"/>
    <prefix value="ped"/>
    <trip-attributes value="modes=&quot;public&quot;"/>
    <vehicle-class value="pedestrian"/>
    <fringe-factor value="1"/>
    <insertion-density value="5.0"/>
    <duarouter-weights.tls-penalty value="20"/>
</configuration>
-->

<routes xmlns:xsi="http://www.w3.org/2001/XMLSchema-instance" xsi:noNamespaceSchemaLocation="http://sumo.dlr.de/xsd/routes_file.xsd">
    <vType id="ped_pedestrian" vClass="pedestrian"/>
    <person id="ped0" depart="0.00" type="ped_pedestrian">
        <personTrip from="676223359" to="-1305732338" modes="public"/>
    </person>
    <person id="ped1" depart="0.66" type="ped_pedestrian">
        <personTrip from="-919079129#2" to="-917269469" modes="public"/>
    </person>
    <person id="ped2" depart="1.32" type="ped_pedestrian">
        <personTrip from="918117143#0" to="912819522#0" modes="public"/>
    </person>
    <person id="ped3" depart="1.98" type="ped_pedestrian">
        <personTrip from="926179937" to="-370129522#5" modes="public"/>
    </person>
    <person id="ped4" depart="2.64" type="ped_pedestrian">
        <personTrip from="-932417881#2" to="-225759468" modes="public"/>
    </person>
    <person id="ped5" depart="3.30" type="ped_pedestrian">
        <personTrip from="-915060960" to="1204074352" modes="public"/>
    </person>
    <person id="ped6" depart="3.96" type="ped_pedestrian">
        <personTrip from="-191695181#3" to="-914590375#1" modes="public"/>
    </person>
    <person id="ped7" depart="4.62" type="ped_pedestrian">
        <personTrip from="730443601#7" to="29152914#2" modes="public"/>
    </person>
    <person id="ped8" depart="5.28" type="ped_pedestrian">
        <personTrip from="-915061097" to="370528734#8" modes="public"/>
    </person>
    <person id="ped9" depart="5.94" type="ped_pedestrian">
        <personTrip from="922056815#1" to="-1132747658#0" modes="public"/>
    </person>
    <person id="ped10" depart="6.60" type="ped_pedestrian">
        <personTrip from="922040160#8" to="914564935#0" modes="public"/>
    </person>
    <person id="ped11" depart="7.26" type="ped_pedestrian">
        <personTrip from="-924008300#1" to="-769451698#2" modes="public"/>
    </person>
    <person id="ped12" depart="7.92" type="ped_pedestrian">
        <personTrip from="933118135" to="-923839211" modes="public"/>
    </person>
    <person id="ped13" depart="8.58" type="ped_pedestrian">
        <personTrip from="-370282190" to="-370528642" modes="public"/>
    </person>
    <person id="ped14" depart="9.24" type="ped_pedestrian">
        <personTrip from="924018498#1" to="370694395#12" modes="public"/>
    </person>
    <person id="ped15" depart="9.90" type="ped_pedestrian">
        <personTrip from="922042830#1" to="917809390" modes="public"/>
    </person>
    <person id="ped16" depart="10.56" type="ped_pedestrian">
        <personTrip from="29033231#8" to="933771088#1" modes="public"/>
    </person>
    <person id="ped17" depart="11.23" type="ped_pedestrian">
        <personTrip from="-926108065" to="29311865#1" modes="public"/>
    </person>
    <person id="ped18" depart="11.89" type="ped_pedestrian">
        <personTrip from="922525470#4" to="371068280#0" modes="public"/>
    </person>
    <person id="ped19" depart="12.55" type="ped_pedestrian">
        <personTrip from="924673080#0" to="370129522#3" modes="public"/>
    </person>
    <person id="ped20" depart="13.21" type="ped_pedestrian">
        <personTrip from="914919447#0" to="-28938477#0" modes="public"/>
    </person>
    <person id="ped21" depart="13.87" type="ped_pedestrian">
        <personTrip from="-917809450" to="-921618118#0" modes="public"/>
    </person>
    <person id="ped22" depart="14.53" type="ped_pedestrian">
        <personTrip from="-29917126#1" to="-918117104" modes="public"/>
    </person>
    <person id="ped23" depart="15.19" type="ped_pedestrian">
        <personTrip from="-370528866#1" to="-920641803#2" modes="public"/>
    </person>
    <person id="ped24" depart="15.85" type="ped_pedestrian">
        <personTrip from="630050619#2" to="-925183325" modes="public"/>
    </person>
    <person id="ped25" depart="16.51" type="ped_pedestrian">
        <personTrip from="-926056187" to="-914943625" modes="public"/>
    </person>
    <person id="ped26" depart="17.17" type="ped_pedestrian">
        <personTrip from="-919032592#1" to="932544548" modes="public"/>
    </person>
    <person id="ped27" depart="17.83" type="ped_pedestrian">
        <personTrip from="719461172#0" to="370816802" modes="public"/>
    </person>
    <person id="ped28" depart="18.49" type="ped_pedestrian">
        <personTrip from="-912552771#10" to="917800525#5" modes="public"/>
    </person>
    <person id="ped29" depart="19.15" type="ped_pedestrian">
        <personTrip from="-912522477#3" to="-926171615" modes="public"/>
    </person>
    <person id="ped30" depart="19.81" type="ped_pedestrian">
        <personTrip from="935754553" to="719056967" modes="public"/>
    </person>
    <person id="ped31" depart="20.47" type="ped_pedestrian">
        <personTrip from="29710617" to="913388610#1" modes="public"/>
    </person>
    <person id="ped32" depart="21.13" type="ped_pedestrian">
        <personTrip from="923839197#1" to="919039632#4" modes="public"/>
    </person>
    <person id="ped33" depart="21.79" type="ped_pedestrian">
        <personTrip from="-918107653" to="-255628866#6" modes="public"/>
    </person>
    <person id="ped34" depart="22.45" type="ped_pedestrian">
        <personTrip from="-922397132" to="-919032610#0" modes="public"/>
    </person>
    <person id="ped35" depart="23.11" type="ped_pedestrian">
        <personTrip from="-914959926#1" to="932722719" modes="public"/>
    </person>
    <person id="ped36" depart="23.77" type="ped_pedestrian">
        <personTrip from="926056178#1" to="-922389500" modes="public"/>
    </person>
    <person id="ped37" depart="24.43" type="ped_pedestrian">
        <personTrip from="843200804#1" to="-928188105#11" modes="public"/>
    </person>
    <person id="ped38" depart="25.09" type="ped_pedestrian">
        <personTrip from="931248569#0" to="-933319349" modes="public"/>
    </person>
    <person id="ped39" depart="25.75" type="ped_pedestrian">
        <personTrip from="-919028885" to="-918304670" modes="public"/>
    </person>
    <person id="ped40" depart="26.41" type="ped_pedestrian">
        <personTrip from="29872534#1" to="-919021300#0" modes="public"/>
    </person>
    <person id="ped41" depart="27.07" type="ped_pedestrian">
        <personTrip from="370282201#0" to="926637281" modes="public"/>
    </person>
    <person id="ped42" depart="27.73" type="ped_pedestrian">
        <personTrip from="-929704233" to="-915060984" modes="public"/>
    </person>
    <person id="ped43" depart="28.39" type="ped_pedestrian">
        <personTrip from="958731837#6" to="1305214484" modes="public"/>
    </person>
    <person id="ped44" depart="29.05" type="ped_pedestrian">
        <personTrip from="-370145500" to="-29033149#0" modes="public"/>
    </person>
    <person id="ped45" depart="29.71" type="ped_pedestrian">
        <personTrip from="-370674161#0" to="371321312" modes="public"/>
    </person>
    <person id="ped46" depart="30.37" type="ped_pedestrian">
        <personTrip from="921310432" to="-932417883" modes="public"/>
    </person>
    <person id="ped47" depart="31.03" type="ped_pedestrian">
        <personTrip from="-29546917#0" to="-926179133" modes="public"/>
    </person>
    <person id="ped48" depart="31.69" type="ped_pedestrian">
        <personTrip from="957436462#0" to="28852620" modes="public"/>
    </person>
    <person id="ped49" depart="32.36" type="ped_pedestrian">
        <personTrip from="933319351#1" to="924639736#3" modes="public"/>
    </person>
    <person id="ped50" depart="33.02" type="ped_pedestrian">
        <personTrip from="-1202753978" to="915060959" modes="public"/>
    </person>
    <person id="ped51" depart="33.68" type="ped_pedestrian">
        <personTrip from="913051131" to="29056576#2" modes="public"/>
    </person>
    <person id="ped52" depart="34.34" type="ped_pedestrian">
        <personTrip from="-919032592#0" to="719056975" modes="public"/>
    </person>
    <person id="ped53" depart="35.00" type="ped_pedestrian">
        <personTrip from="-370678344#1" to="-932722749" modes="public"/>
    </person>
    <person id="ped54" depart="35.66" type="ped_pedestrian">
        <personTrip from="-933268590" to="933106867#1" modes="public"/>
    </person>
    <person id="ped55" depart="36.32" type="ped_pedestrian">
        <personTrip from="926056173" to="-919021305" modes="public"/>
    </person>
    <person id="ped56" depart="36.98" type="ped_pedestrian">
        <personTrip from="1203391831" to="-913051055#0" modes="public"/>
    </person>
    <person id="ped57" depart="37.64" type="ped_pedestrian">
        <personTrip from="930910711" to="925183318#2" modes="public"/>
    </person>
    <person id="ped58" depart="38.30" type="ped_pedestrian">
        <personTrip from="-922040152#1" to="676223351" modes="public"/>
    </person>
    <person id="ped59" depart="38.96" type="ped_pedestrian">
        <personTrip from="370816719" to="-730443601#3" modes="public"/>
    </person>
    <person id="ped60" depart="39.62" type="ped_pedestrian">
        <personTrip from="918641195" to="29058220" modes="public"/>
    </person>
    <person id="ped61" depart="40.28" type="ped_pedestrian">
        <personTrip from="919042856" to="28852807#5" modes="public"/>
    </person>
    <person id="ped62" depart="40.94" type="ped_pedestrian">
        <personTrip from="-1043437797#1" to="-922525478#5" modes="public"/>
    </person>
    <person id="ped63" depart="41.60" type="ped_pedestrian">
        <personTrip from="-1214776189" to="932417860" modes="public"/>
    </person>
    <person id="ped64" depart="42.26" type="ped_pedestrian">
        <personTrip from="926056188" to="922525483#2" modes="public"/>
    </person>
    <person id="ped65" depart="42.92" type="ped_pedestrian">
        <personTrip from="-922074372#1" to="-29152921#3" modes="public"/>
    </person>
    <person id="ped66" depart="43.58" type="ped_pedestrian">
        <personTrip from="926056184#5" to="932761301" modes="public"/>
    </person>
    <person id="ped67" depart="44.24" type="ped_pedestrian">
        <personTrip from="-370125477#3" to="-958795864" modes="public"/>
    </person>
    <person id="ped68" depart="44.90" type="ped_pedestrian">
        <personTrip from="-29855284#2" to="918619140" modes="public"/>
    </person>
    <person id="ped69" depart="45.56" type="ped_pedestrian">
        <personTrip from="918680902" to="-371068294#0" modes="public"/>
    </person>
    <person id="ped70" depart="46.22" type="ped_pedestrian">
        <personTrip from="-935470520#0" to="29153664#0" modes="public"/>
    </person>
    <person id="ped71" depart="46.88" type="ped_pedestrian">
        <personTrip from="-919028895#1" to="925186345" modes="public"/>
    </person>
    <person id="ped72" depart="47.54" type="ped_pedestrian">
        <personTrip from="-932417898" to="-914959935" modes="public"/>
    </person>
    <person id="ped73" depart="48.20" type="ped_pedestrian">
        <personTrip from="29058025" to="917809409" modes="public"/>
    </person>
    <person id="ped74" depart="48.86" type="ped_pedestrian">
        <personTrip from="-914683007" to="-922389473" modes="public"/>
    </person>
    <person id="ped75" depart="49.52" type="ped_pedestrian">
        <personTrip from="936352916" to="730443601#7" modes="public"/>
    </person>
    <person id="ped76" depart="50.18" type="ped_pedestrian">
        <personTrip from="-932796588" to="225975553" modes="public"/>
    </person>
    <person id="ped77" depart="50.84" type="ped_pedestrian">
        <personTrip from="-370844536#0" to="-917398324" modes="public"/>
    </person>
    <person id="ped78" depart="51.50" type="ped_pedestrian">
        <personTrip from="-923998874" to="370528671" modes="public"/>
    </person>
    <person id="ped79" depart="52.16" type="ped_pedestrian">
        <personTrip from="-918112198#14" to="-915061095" modes="public"/>
    </person>
    <person id="ped80" depart="52.82" type="ped_pedestrian">
        <personTrip from="-29872499#4" to="492169568#0" modes="public"/>
    </person>
    <person id="ped81" depart="53.48" type="ped_pedestrian">
        <personTrip from="-917809472" to="928188108" modes="public"/>
    </person>
    <person id="ped82" depart="54.15" type="ped_pedestrian">
        <personTrip from="924639731" to="-29872499#11" modes="public"/>
    </person>
    <person id="ped83" depart="54.81" type="ped_pedestrian">
        <personTrip from="-918137262" to="912552758#1" modes="public"/>
    </person>
    <person id="ped84" depart="55.47" type="ped_pedestrian">
        <personTrip from="-915001613" to="-371317827#2" modes="public"/>
    </person>
    <person id="ped85" depart="56.13" type="ped_pedestrian">
        <personTrip from="932544540#5" to="322435720" modes="public"/>
    </person>
    <person id="ped86" depart="56.79" type="ped_pedestrian">
        <personTrip from="-934329906#1" to="920714054" modes="public"/>
    </person>
    <person id="ped87" depart="57.45" type="ped_pedestrian">
        <personTrip from="922042849" to="-914068258#0" modes="public"/>
    </person>
    <person id="ped88" depart="58.11" type="ped_pedestrian">
        <personTrip from="-370528660#2" to="-932680645#1" modes="public"/>
    </person>
    <person id="ped89" depart="58.77" type="ped_pedestrian">
        <personTrip from="-932417903#1" to="-934206806#4" modes="public"/>
    </person>
    <person id="ped90" depart="59.43" type="ped_pedestrian">
        <personTrip from="917800525#5" to="912558161#1" modes="public"/>
    </person>
    <person id="ped91" depart="60.09" type="ped_pedestrian">
        <personTrip from="934261990#4" to="-370528758" modes="public"/>
    </person>
    <person id="ped92" depart="60.75" type="ped_pedestrian">
        <personTrip from="-930514250" to="-924008269" modes="public"/>
    </person>
    <person id="ped93" depart="61.41" type="ped_pedestrian">
        <personTrip from="924673080#0" to="-918494933" modes="public"/>
    </person>
    <person id="ped94" depart="62.07" type="ped_pedestrian">
        <personTrip from="-914068257#0" to="-933255416" modes="public"/>
    </person>
    <person id="ped95" depart="62.73" type="ped_pedestrian">
        <personTrip from="-932417881#1" to="-920641811" modes="public"/>
    </person>
    <person id="ped96" depart="63.39" type="ped_pedestrian">
        <personTrip from="-918503332" to="932358058#2" modes="public"/>
    </person>
    <person id="ped97" depart="64.05" type="ped_pedestrian">
        <personTrip from="-932916415#1" to="924642146" modes="public"/>
    </person>
    <person id="ped98" depart="64.71" type="ped_pedestrian">
        <personTrip from="29163302#0" to="-29056606#2" modes="public"/>
    </person>
    <person id="ped99" depart="65.37" type="ped_pedestrian">
        <personTrip from="985286791#0" to="923606051" modes="public"/>
    </person>
    <person id="ped100" depart="66.03" type="ped_pedestrian">
        <personTrip from="933269862" to="932399623#1" modes="public"/>
    </person>
    <person id="ped101" depart="66.69" type="ped_pedestrian">
        <personTrip from="924018512#1" to="-912541676#0" modes="public"/>
    </person>
    <person id="ped102" depart="67.35" type="ped_pedestrian">
        <personTrip from="-958731842" to="-915001603" modes="public"/>
    </person>
    <person id="ped103" depart="68.01" type="ped_pedestrian">
        <personTrip from="-930507595#1" to="-29152948" modes="public"/>
    </person>
    <person id="ped104" depart="68.67" type="ped_pedestrian">
        <personTrip from="-926171611#0" to="934329920#0" modes="public"/>
    </person>
    <person id="ped105" depart="69.33" type="ped_pedestrian">
        <personTrip from="-919028903#0" to="920714050#1" modes="public"/>
    </person>
    <person id="ped106" depart="69.99" type="ped_pedestrian">
        <personTrip from="-933268613#0" to="-932417896#0" modes="public"/>
    </person>
    <person id="ped107" depart="70.65" type="ped_pedestrian">
        <personTrip from="933118145" to="944622176" modes="public"/>
    </person>
    <person id="ped108" depart="71.31" type="ped_pedestrian">
        <personTrip from="295576672#2" to="915006506" modes="public"/>
    </person>
    <person id="ped109" depart="71.97" type="ped_pedestrian">
        <personTrip from="-761955571#1" to="-922017670#16" modes="public"/>
    </person>
    <person id="ped110" depart="72.63" type="ped_pedestrian">
        <personTrip from="933269832" to="370131931#0" modes="public"/>
    </person>
    <person id="ped111" depart="73.29" type="ped_pedestrian">
        <personTrip from="29107695#1" to="918236596" modes="public"/>
    </person>
    <person id="ped112" depart="73.95" type="ped_pedestrian">
        <personTrip from="-29152905#2" to="370282196#1" modes="public"/>
    </person>
    <person id="ped113" depart="74.61" type="ped_pedestrian">
        <personTrip from="1203851069#1" to="924068605" modes="public"/>
    </person>
    <person id="ped114" depart="75.28" type="ped_pedestrian">
        <personTrip from="-801290411#2" to="933257262#0" modes="public"/>
    </person>
    <person id="ped115" depart="75.94" type="ped_pedestrian">
        <personTrip from="-29917126#4" to="-913504064" modes="public"/>
    </person>
    <person id="ped116" depart="76.60" type="ped_pedestrian">
        <personTrip from="370531923#4" to="912623639#0" modes="public"/>
    </person>
    <person id="ped117" depart="77.26" type="ped_pedestrian">
        <personTrip from="-918121320#0" to="-370844092#0" modes="public"/>
    </person>
    <person id="ped118" depart="77.92" type="ped_pedestrian">
        <personTrip from="926179134#0" to="-918304644#1" modes="public"/>
    </person>
    <person id="ped119" depart="78.58" type="ped_pedestrian">
        <personTrip from="370531920#1" to="371068288#6" modes="public"/>
    </person>
    <person id="ped120" depart="79.24" type="ped_pedestrian">
        <personTrip from="-932407322" to="370282183#0" modes="public"/>
    </person>
    <person id="ped121" depart="79.90" type="ped_pedestrian">
        <personTrip from="28852352#2" to="932544533#1" modes="public"/>
    </person>
    <person id="ped122" depart="80.56" type="ped_pedestrian">
        <personTrip from="-914922876#3" to="915001613" modes="public"/>
    </person>
    <person id="ped123" depart="81.22" type="ped_pedestrian">
        <personTrip from="-918137289" to="-928188105#14" modes="public"/>
    </person>
    <person id="ped124" depart="81.88" type="ped_pedestrian">
        <personTrip from="912552774" to="-922040160#7" modes="public"/>
    </person>
    <person id="ped125" depart="82.54" type="ped_pedestrian">
        <personTrip from="-922435387" to="918494927#1" modes="public"/>
    </person>
    <person id="ped126" depart="83.20" type="ped_pedestrian">
        <personTrip from="-29877757#1" to="-933315633" modes="public"/>
    </person>
    <person id="ped127" depart="83.86" type="ped_pedestrian">
        <personTrip from="958731841" to="957436462#0" modes="public"/>
    </person>
    <person id="ped128" depart="84.52" type="ped_pedestrian">
        <personTrip from="-29877795#1" to="-915001564#0" modes="public"/>
    </person>
    <person id="ped129" depart="85.18" type="ped_pedestrian">
        <personTrip from="-919028903#0" to="932437495#0" modes="public"/>
    </person>
    <person id="ped130" depart="85.84" type="ped_pedestrian">
        <personTrip from="926056200" to="926056192#0" modes="public"/>
    </person>
    <person id="ped131" depart="86.50" type="ped_pedestrian">
        <personTrip from="-926056184#3" to="-843200806#0" modes="public"/>
    </person>
    <person id="ped132" depart="87.16" type="ped_pedestrian">
        <personTrip from="923588796#0" to="914707829#0" modes="public"/>
    </person>
    <person id="ped133" depart="87.82" type="ped_pedestrian">
        <personTrip from="370844113" to="934747459#0" modes="public"/>
    </person>
    <person id="ped134" depart="88.48" type="ped_pedestrian">
        <personTrip from="769451709" to="-1155857691" modes="public"/>
    </person>
    <person id="ped135" depart="89.14" type="ped_pedestrian">
        <personTrip from="922389471#0" to="-922040160#19" modes="public"/>
    </person>
    <person id="ped136" depart="89.80" type="ped_pedestrian">
        <personTrip from="912522478#2" to="932603670#0" modes="public"/>
    </person>
    <person id="ped137" depart="90.46" type="ped_pedestrian">
        <personTrip from="-371318359#1" to="-370694970" modes="public"/>
    </person>
    <person id="ped138" depart="91.12" type="ped_pedestrian">
        <personTrip from="-370544064#2" to="29546917#2" modes="public"/>
    </person>
    <person id="ped139" depart="91.78" type="ped_pedestrian">
        <personTrip from="-919039637#2" to="370694431" modes="public"/>
    </person>
    <person id="ped140" depart="92.44" type="ped_pedestrian">
        <personTrip from="915001651" to="-914919448#2" modes="public"/>
    </person>
    <person id="ped141" depart="93.10" type="ped_pedestrian">
        <personTrip from="548682322#2" to="-919021312#3" modes="public"/>
    </person>
    <person id="ped142" depart="93.76" type="ped_pedestrian">
        <personTrip from="1059803896#0" to="928188105#9" modes="public"/>
    </person>
    <person id="ped143" depart="94.42" type="ped_pedestrian">
        <personTrip from="924008288" to="-370282162" modes="public"/>
    </person>
    <person id="ped144" depart="95.08" type="ped_pedestrian">
        <personTrip from="-932417903#1" to="-919079155" modes="public"/>
    </person>
    <person id="ped145" depart="95.74" type="ped_pedestrian">
        <personTrip from="-1104860945" to="919032561" modes="public"/>
    </person>
    <person id="ped146" depart="96.40" type="ped_pedestrian">
        <personTrip from="658361187#1" to="-918680924#1" modes="public"/>
    </person>
    <person id="ped147" depart="97.07" type="ped_pedestrian">
        <personTrip from="918137258" to="29311823#0" modes="public"/>
    </person>
    <person id="ped148" depart="97.73" type="ped_pedestrian">
        <personTrip from="-932544552#1" to="-1202245094" modes="public"/>
    </person>
    <person id="ped149" depart="98.39" type="ped_pedestrian">
        <personTrip from="-29916944#2" to="926073051#1" modes="public"/>
    </person>
    <person id="ped150" depart="99.05" type="ped_pedestrian">
        <personTrip from="928188105#13" to="29152921#5" modes="public"/>
    </person>
    <person id="ped151" depart="99.71" type="ped_pedestrian">
        <personTrip from="923588802#2" to="370279050" modes="public"/>
    </person>
    <person id="ped152" depart="100.37" type="ped_pedestrian">
        <personTrip from="-719056977#2" to="-371068288#0" modes="public"/>
    </person>
    <person id="ped153" depart="101.03" type="ped_pedestrian">
        <personTrip from="-922101076" to="926996495#0" modes="public"/>
    </person>
    <person id="ped154" depart="101.69" type="ped_pedestrian">
        <personTrip from="921661772#1" to="924639736#2" modes="public"/>
    </person>
    <person id="ped155" depart="102.35" type="ped_pedestrian">
        <personTrip from="926996494" to="-914959882#0" modes="public"/>
    </person>
    <person id="ped156" depart="103.01" type="ped_pedestrian">
        <personTrip from="-918503330#0" to="-370531905#1" modes="public"/>
    </person>
    <person id="ped157" depart="103.67" type="ped_pedestrian">
        <personTrip from="919079131" to="926073054#3" modes="public"/>
    </person>
    <person id="ped158" depart="104.33" type="ped_pedestrian">
        <personTrip from="-931248588#1" to="371124108" modes="public"/>
    </person>
    <person id="ped159" depart="104.99" type="ped_pedestrian">
        <personTrip from="-761932830" to="932417876#0" modes="public"/>
    </person>
    <person id="ped160" depart="105.65" type="ped_pedestrian">
        <personTrip from="924791030" to="934139767#2" modes="public"/>
    </person>
    <person id="ped161" depart="106.31" type="ped_pedestrian">
        <personTrip from="922056842#3" to="926056202#0" modes="public"/>
    </person>
    <person id="ped162" depart="106.97" type="ped_pedestrian">
        <personTrip from="-1305696245" to="918117143#1" modes="public"/>
    </person>
    <person id="ped163" depart="107.63" type="ped_pedestrian">
        <personTrip from="-923720336" to="932417880#0" modes="public"/>
    </person>
    <person id="ped164" depart="108.29" type="ped_pedestrian">
        <personTrip from="922017670#15" to="924744947#2" modes="public"/>
    </person>
    <person id="ped165" depart="108.95" type="ped_pedestrian">
        <personTrip from="922056842#3" to="-919032561" modes="public"/>
    </person>
    <person id="ped166" depart="109.61" type="ped_pedestrian">
        <personTrip from="920714075" to="-370669709" modes="public"/>
    </person>
    <person id="ped167" depart="110.27" type="ped_pedestrian">
        <personTrip from="925184299#1" to="924639709#0" modes="public"/>
    </person>
    <person id="ped168" depart="110.93" type="ped_pedestrian">
        <personTrip from="-915801043" to="922383868" modes="public"/>
    </person>
    <person id="ped169" depart="111.59" type="ped_pedestrian">
        <personTrip from="-933688849#0" to="-922056842#5" modes="public"/>
    </person>
    <person id="ped170" depart="112.25" type="ped_pedestrian">
        <personTrip from="921618121#0" to="-917809448" modes="public"/>
    </person>
    <person id="ped171" depart="112.91" type="ped_pedestrian">
        <personTrip from="-1305376647" to="-914069666" modes="public"/>
    </person>
    <person id="ped172" depart="113.57" type="ped_pedestrian">
        <personTrip from="-923588802#2" to="924744947#5" modes="public"/>
    </person>
    <person id="ped173" depart="114.23" type="ped_pedestrian">
        <personTrip from="933268613#1" to="-920714051" modes="public"/>
    </person>
    <person id="ped174" depart="114.89" type="ped_pedestrian">
        <personTrip from="719056977#4" to="-929704238" modes="public"/>
    </person>
    <person id="ped175" depart="115.55" type="ped_pedestrian">
        <personTrip from="934206821#1" to="29033231#8" modes="public"/>
    </person>
    <person id="ped176" depart="116.21" type="ped_pedestrian">
        <personTrip from="932603671#1" to="-370694929" modes="public"/>
    </person>
    <person id="ped177" depart="116.87" type="ped_pedestrian">
        <personTrip from="933317187" to="-913051054" modes="public"/>
    </person>
    <person id="ped178" depart="117.53" type="ped_pedestrian">
        <personTrip from="933257271#1" to="-919028908" modes="public"/>
    </person>
    <person id="ped179" depart="118.20" type="ped_pedestrian">
        <personTrip from="-370671667#2" to="-932722747#0" modes="public"/>
    </person>
    <person id="ped180" depart="118.86" type="ped_pedestrian">
        <personTrip from="917784050#0" to="-922389490" modes="public"/>
    </person>
    <person id="ped181" depart="119.52" type="ped_pedestrian">
        <personTrip from="370694555#1" to="1305397755" modes="public"/>
    </person>
    <person id="ped182" depart="120.18" type="ped_pedestrian">
        <personTrip from="-926506898" to="370125481#3" modes="public"/>
    </person>
    <person id="ped183" depart="120.84" type="ped_pedestrian">
        <personTrip from="-918553119#0" to="914934262#0" modes="public"/>
    </person>
    <person id="ped184" depart="121.50" type="ped_pedestrian">
        <personTrip from="-1069477804" to="932389236" modes="public"/>
    </person>
    <person id="ped185" depart="122.16" type="ped_pedestrian">
        <personTrip from="29056611#1" to="915006524" modes="public"/>
    </person>
    <person id="ped186" depart="122.82" type="ped_pedestrian">
        <personTrip from="918137289" to="912552771#10" modes="public"/>
    </person>
    <person id="ped187" depart="123.48" type="ped_pedestrian">
        <personTrip from="-925183319" to="-29872448#4" modes="public"/>
    </person>
    <person id="ped188" depart="124.14" type="ped_pedestrian">
        <personTrip from="912522483#0" to="-923609996" modes="public"/>
    </person>
    <person id="ped189" depart="124.80" type="ped_pedestrian">
        <personTrip from="-922389492#1" to="924018503" modes="public"/>
    </person>
    <person id="ped190" depart="125.46" type="ped_pedestrian">
        <personTrip from="915060863#0" to="-922042806" modes="public"/>
    </person>
    <person id="ped191" depart="126.12" type="ped_pedestrian">
        <personTrip from="-922357963#2" to="-931278484" modes="public"/>
    </person>
    <person id="ped192" depart="126.78" type="ped_pedestrian">
        <personTrip from="-930507604#1" to="-921989981" modes="public"/>
    </person>
    <person id="ped193" depart="127.44" type="ped_pedestrian">
        <personTrip from="-371068280#2" to="-932417874" modes="public"/>
    </person>
    <person id="ped194" depart="128.10" type="ped_pedestrian">
        <personTrip from="932680644#1" to="913051007" modes="public"/>
    </person>
    <person id="ped195" depart="128.76" type="ped_pedestrian">