<routes xmlns:xsi="http://www.w3.org/2001/XMLSchema-instance" xsi:noNamespaceSchemaLocation="http://sumo.dlr.de/xsd/routes_file.xsd">
	<vType id="motorcycle_motorcycle" vClass="motorcycle"/>
	<trip id="motorcycle0" type="motorcycle_motorcycle" depart="0.00" departLane="best" from="-29875672#0" to="29873772#5"/>
	<trip id="motorcycle1" type="motorcycle_motorcycle" depart="2.50" departLane="best" from="370143464#1" to="-29032902#4"/>
	<trip id="motorcycle2" type="motorcycle_motorcycle" depart="5.00" departLane="best" from="29034297#1" to="-370138516#4"/>
	<trip id="motorcycle3" type="motorcycle_motorcycle" depart="7.50" departLane="best" from="-371051987#14" to="29034134#0"/>
	<trip id="motorcycle4" type="motorcycle_motorcycle" depart="10.00" departLane="best" from="-933239099" to="370138599"/>
	<trip id="motorcycle5" type="motorcycle_motorcycle" depart="12.50" departLane="best" from="-29720279#1" to="-29031819#7"/>
	<trip id="motorcycle6" type="motorcycle_motorcycle" depart="15.00" departLane="best" from="932761288#3" to="933225173#3"/>
	<trip id="motorcycle7" type="motorcycle_motorcycle" depart="17.50" departLane="best" from="371051996" to="934186395"/>
	<trip id="motorcycle8" type="motorcycle_motorcycle" depart="20.00" departLane="best" from="29034471#1" to="29032016"/>
	<trip id="motorcycle9" type="motorcycle_motorcycle" depart="22.50" departLane="best" from="1195562746#6" to="-29034022#0"/>
	<trip id="motorcycle10" type="motorcycle_motorcycle" depart="25.00" departLane="best" from="818305723" to="29034135#0"/>
	<trip id="motorcycle11" type="motorcycle_motorcycle" depart="27.50" departLane="best" from="-370809944#3" to="-29031855#0"/>
	<trip id="motorcycle12" type="motorcycle_motorcycle" depart="30.00" departLane="best" from="370809944#1" to="-371065192#2"/>
	<trip id="motorcycle13" type="motorcycle_motorcycle" depart="32.50" departLane="best" from="370138578#0" to="-29034025"/>
	<trip id="motorcycle14" type="motorcycle_motorcycle" depart="35.00" departLane="best" from="757101432#5" to="-29031845#9"/>
	<trip id="motorcycle15" type="motorcycle_motorcycle" depart="37.50" departLane="best" from="-29720337#1" to="370138454"/>
	<trip id="motorcycle16" type="motorcycle_motorcycle" depart="40.00" departLane="best" from="-371065180#0" to="-370138602#2"/>
	<trip id="motorcycle17" type="motorcycle_motorcycle" depart="42.50" departLane="best" from="29031926#5" to="-370138643#0"/>
	<trip id="motorcycle18" type="motorcycle_motorcycle" depart="45.00" departLane="best" from="-371051981#0" to="370138618"/>
	<trip id="motorcycle19" type="motorcycle_motorcycle" depart="47.50" departLane="best" from="933230247#12" to="370138577#1"/>
	<trip id="motorcycle20" type="motorcycle_motorcycle" depart="50.00" departLane="best" from="934172671#7" to="-29033034#6"/>
	<trip id="motorcycle21" type="motorcycle_motorcycle" depart="52.50" departLane="best" from="-29032902#7" to="933225173#4"/>
	<trip id="motorcycle22" type="motorcycle_motorcycle" depart="55.00" departLane="best" from="29857622" to="-370138485"/>
	<trip id="motorcycle23" type="motorcycle_motorcycle" depart="57.50" departLane="best" from="-370138510" to="-933228457"/>
	<trip id="motorcycle24" type="motorcycle_motorcycle" depart="60.00" departLane="best" from="934172671#2" to="29031819#15"/>
	<trip id="motorcycle25" type="motorcycle_motorcycle" depart="62.50" departLane="best" from="-225880669#1" to="29031891#2"/>
	<trip id="motorcycle26" type="motorcycle_motorcycle" depart="65.00" departLane="best" from="29873138#2" to="933225166#3"/>
	<trip id="motorcycle27" type="motorcycle_motorcycle" depart="67.50" departLane="best" from="-29720377" to="29031852#2"/>
	<trip id="motorcycle28" type="motorcycle_motorcycle" depart="70.00" departLane="best" from="-369798419#2" to="-29031858#0"/>
	<trip id="motorcycle29" type="motorcycle_motorcycle" depart="72.50" departLane="best" from="-29867951#8" to="370138425#0"/>
	<trip id="motorcycle30" type="motorcycle_motorcycle" depart="75.00" departLane="best" from="-29868441#1" to="934186395"/>
	<trip id="motorcycle31" type="motorcycle_motorcycle" depart="77.50" departLane="best" from="370143462" to="29032963#2"/>
	<trip id="motorcycle32" type="motorcycle_motorcycle" depart="80.00" departLane="best" from="918320659#0" to="757107600#17"/>
	<trip id="motorcycle33" type="motorcycle_motorcycle" depart="82.50" departLane="best" from="-29860522" to="-370138484"/>
	<trip id="motorcycle34" type="motorcycle_motorcycle" depart="85.00" departLane="best" from="-310184009#2" to="371065182#0"/>
	<trip id="motorcycle35" type="motorcycle_motorcycle" depart="87.50" departLane="best" from="-29034509" to="29031978#0"/>
	<trip id="motorcycle36" type="motorcycle_motorcycle" depart="90.00" departLane="best" from="-29857886#1" to="-29034080#1"/>
	<trip id="motorcycle37" type="motorcycle_motorcycle" depart="92.50" departLane="best" from="-934172671#0" to="29917315#3"/>
	<trip id="motorcycle38" type="motorcycle_motorcycle" depart="95.00" departLane="best" from="-371051963" to="29034092#3"/>
	<trip id="motorcycle39" type="motorcycle_motorcycle" depart="97.50" departLane="best" from="29859148#0" to="-29031862"/>
	<trip id="motorcycle40" type="motorcycle_motorcycle" depart="100.00" departLane="best" from="757101446#2" to="-29031608#2"/>
	<trip id="motorcycle41" type="motorcycle_motorcycle" depart="102.50" departLane="best" from="370809896" to="-1273243125#1"/>
	<trip id="motorcycle42" type="motorcycle_motorcycle" depart="105.00" departLane="best" from="914025061#4" to="29034135#1"/>
	<trip id="motorcycle43" type="motorcycle_motorcycle" depart="107.50" departLane="best" from="371052000#24" to="-1273075748"/>
	<trip id="motorcycle44" type="motorcycle_motorcycle" depart="110.00" departLane="best" from="-29871060#1" to="370138684#1"/>
	<trip id="motorcycle45" type="motorcycle_motorcycle" depart="112.50" departLane="best" from="29869699#3" to="818305720"/>
	<trip id="motorcycle46" type="motorcycle_motorcycle" depart="115.00" departLane="best" from="-370138464" to="-29031845#14"/>
	<trip id="motorcycle47" type="motorcycle_motorcycle" depart="117.50" departLane="best" from="370809944#1" to="-818305718"/>
	<trip id="motorcycle48" type="motorcycle_motorcycle" depart="120.00" departLane="best" from="921930226#10" to="-29032983#2"/>
	<trip id="motorcycle49" type="motorcycle_motorcycle" depart="122.50" departLane="best" from="370138640#1" to="-29031877"/>
	<trip id="motorcycle50" type="motorcycle_motorcycle" depart="125.00" departLane="best" from="370138584#0" to="370138574"/>
	<trip id="motorcycle51" type="motorcycle_motorcycle" depart="127.50" departLane="best" from="-29859173#2" to="-1273576290#1"/>
	<trip id="motorcycle52" type="motorcycle_motorcycle" depart="130.00" departLane="best" from="-369798471" to="933228444#4"/>
	<trip id="motorcycle53" type="motorcycle_motorcycle" depart="132.50" departLane="best" from="-370138652#0" to="-29034134#0"/>
	<trip id="motorcycle54" type="motorcycle_motorcycle" depart="135.00" departLane="best" from="933225163#4" to="-29031855#0"/>
	<trip id="motorcycle55" type="motorcycle_motorcycle" depart="137.50" departLane="best" from="28938889" to="-29031819#11"/>
	<trip id="motorcycle56" type="motorcycle_motorcycle" depart="140.00" departLane="best" from="921930231#0" to="-29031845#8"/>
	<trip id="motorcycle57" type="motorcycle_motorcycle" depart="142.50" departLane="best" from="-29871225" to="933225167#4"/>
	<trip id="motorcycle58" type="motorcycle_motorcycle" depart="145.00" departLane="best" from="-29034241#4" to="-933228464"/>
	<trip id="motorcycle59" type="motorcycle_motorcycle" depart="147.50" departLane="best" from="-933269855" to="-29034079#3"/>
	<trip id="motorcycle60" type="motorcycle_motorcycle" depart="150.00" departLane="best" from="29860663" to="1190158549#0"/>
	<trip id="motorcycle61" type="motorcycle_motorcycle" depart="152.50" departLane="best" from="-29867287#2" to="29034093"/>
	<trip id="motorcycle62" type="motorcycle_motorcycle" depart="155.00" departLane="best" from="-29034201#3" to="-29031931#5"/>
	<trip id="motorcycle63" type="motorcycle_motorcycle" depart="157.50" departLane="best" from="310184008#4" to="-29032902#13"/>
	<trip id="motorcycle64" type="motorcycle_motorcycle" depart="160.00" departLane="best" from="371051982" to="370138511"/>
	<trip id="motorcycle65" type="motorcycle_motorcycle" depart="162.50" departLane="best" from="-934172671#2" to="-29031917#1"/>
	<trip id="motorcycle66" type="motorcycle_motorcycle" depart="165.00" departLane="best" from="-29033330#0" to="-1273576290#1"/>
	<trip id="motorcycle67" type="motorcycle_motorcycle" depart="167.50" departLane="best" from="1289248709#0" to="371065192#3"/>
	<trip id="motorcycle68" type="motorcycle_motorcycle" depart="170.00" departLane="best" from="-29034235#2" to="-29031917#0"/>
	<trip id="motorcycle69" type="motorcycle_motorcycle" depart="172.50" departLane="best" from="-921989966" to="370138425#2"/>
	<trip id="motorcycle70" type="motorcycle_motorcycle" depart="175.00" departLane="best" from="29871899#2" to="29032902#11"/>
	<trip id="motorcycle71" type="motorcycle_motorcycle" depart="177.50" departLane="best" from="-29871899#2" to="-29034085#2"/>
	<trip id="motorcycle72" type="motorcycle_motorcycle" depart="180.00" departLane="best" from="-29873157#1" to="361899452#5"/>
	<trip id="motorcycle73" type="motorcycle_motorcycle" depart="182.50" departLane="best" from="29873048#3" to="-29032963#4"/>
	<trip id="motorcycle74" type="motorcycle_motorcycle" depart="185.00" departLane="best" from="29032902#1" to="29031862"/>
	<trip id="motorcycle75" type="motorcycle_motorcycle" depart="187.50" departLane="best" from="933239104" to="370138433#4"/>
	<trip id="motorcycle76" type="motorcycle_motorcycle" depart="190.00" departLane="best" from="369798562" to="369963708#4"/>
	<trip id="motorcycle77" type="motorcycle_motorcycle" depart="192.50" departLane="best" from="29853864" to="1190158549#4"/>
	<trip id="motorcycle78" type="motorcycle_motorcycle" depart="195.00" departLane="best" from="-29031931#1" to="933225167#4"/>
	<trip id="motorcycle79" type="motorcycle_motorcycle" depart="197.50" departLane="best" from="-29853872" to="29031857#0"/>
	<trip id="motorcycle80" type="motorcycle_motorcycle" depart="200.00" departLane="best" from="29858759" to="1190158549#7"/>
	<trip id="motorcycle81" type="motorcycle_motorcycle" depart="202.50" departLane="best" from="-29871167#0" to="-370138602#0"/>
	<trip id="motorcycle82" type="motorcycle_motorcycle" depart="205.00" departLane="best" from="-29857761#0" to="-29034135#0"/>
	<trip id="motorcycle83" type="motorcycle_motorcycle" depart="207.50" departLane="best" from="-29317517#1" to="370678321#2"/>
	<trip id="motorcycle84" type="motorcycle_motorcycle" depart="210.00" departLane="best" from="-29034328#21" to="-370138457"/>
	<trip id="motorcycle85" type="motorcycle_motorcycle" depart="212.50" departLane="best" from="-371065196#1" to="918494925#19"/>
	<trip id="motorcycle86" type="motorcycle_motorcycle" depart="215.00" departLane="best" from="-934172690" to="-29034085#2"/>
	<trip id="motorcycle87" type="motorcycle_motorcycle" depart="217.50" departLane="best" from="29031970#0" to="370138433#0"/>
	<trip id="motorcycle88" type="motorcycle_motorcycle" depart="220.00" departLane="best" from="29873138#6" to="-933228448"/>
	<trip id="motorcycle89" type="motorcycle_motorcycle" depart="222.50" departLane="best" from="-918320660#5" to="-934186394"/>
	<trip id="motorcycle90" type="motorcycle_motorcycle" depart="225.00" departLane="best" from="-29853990#8" to="370138655#1"/>
	<trip id="motorcycle91" type="motorcycle_motorcycle" depart="227.50" departLane="best" from="371065182#0" to="29031917#1"/>
	<trip id="motorcycle92" type="motorcycle_motorcycle" depart="230.00" departLane="best" from="29869753" to="-370138433#4"/>
	<trip id="motorcycle93" type="motorcycle_motorcycle" depart="232.50" departLane="best" from="29031819#5" to="29031819#8"/>
	<trip id="motorcycle94" type="motorcycle_motorcycle" depart="235.00" departLane="best" from="-29858987#7" to="-370138662#4"/>
	<trip id="motorcycle95" type="motorcycle_motorcycle" depart="237.50" departLane="best" from="-371065186#14" to="-933228445"/>
	<trip id="motorcycle96" type="motorcycle_motorcycle" depart="240.00" departLane="best" from="370138677#0" to="-29031857#3"/>
	<trip id="motorcycle97" type="motorcycle_motorcycle" depart="242.50" departLane="best" from="29873165" to="370138433#1"/>
	<trip id="motorcycle98" type="motorcycle_motorcycle" depart="245.00" departLane="best" from="-29873138#4" to="-370138648#2"/>
	<trip id="motorcycle99" type="motorcycle_motorcycle" depart="247.50" departLane="best" from="28938925#2" to="-29034079#1"/>
	<trip id="motorcycle100" type="motorcycle_motorcycle" depart="250.00" departLane="best" from="361899482" to="370138648#1"/>
	<trip id="motorcycle101" type="motorcycle_motorcycle" depart="252.50" departLane="best" from="370809954#4" to="757107604"/>
	<trip id="motorcycle102" type="motorcycle_motorcycle" depart="255.00" departLane="best" from="29866827" to="-1273580262#0"/>
	<trip id="motorcycle103" type="motorcycle_motorcycle" depart="257.50" departLane="best" from="-921930198" to="927077577"/>
	<trip id="motorcycle104" type="motorcycle_motorcycle" depart="260.00" departLane="best" from="-29873138#9" to="29031608#1"/>
	<trip id="motorcycle105" type="motorcycle_motorcycle" depart="262.50" departLane="best" from="371052000#3" to="370138439"/>
	<trip id="motorcycle106" type="motorcycle_motorcycle" depart="265.00" departLane="best" from="-933216704#33" to="-29034102"/>
	<trip id="motorcycle107" type="motorcycle_motorcycle" depart="267.50" departLane="best" from="29032983#2" to="-29033019"/>
	<trip id="motorcycle108" type="motorcycle_motorcycle" depart="270.00" departLane="best" from="-933269871#1" to="-371065183#0"/>
	<trip id="motorcycle109" type="motorcycle_motorcycle" depart="272.50" departLane="best" from="757109374#4" to="933228444#4"/>
	<trip id="motorcycle110" type="motorcycle_motorcycle" depart="275.00" departLane="best" from="-933216704#24" to="29031819#8"/>
	<trip id="motorcycle111" type="motorcycle_motorcycle" depart="277.50" departLane="best" from="-29034219#3" to="-370138495"/>
	<trip id="motorcycle112" type="motorcycle_motorcycle" depart="280.00" departLane="best" from="-1214772680" to="29031889#0"/>
	<trip id="motorcycle113" type="motorcycle_motorcycle" depart="282.50" departLane="best" from="370809944#5" to="757107600#14"/>
	<trip id="motorcycle114" type="motorcycle_motorcycle" depart="285.00" departLane="best" from="933251561" to="29032902#10"/>
	<trip id="motorcycle115" type="motorcycle_motorcycle" depart="287.50" departLane="best" from="-933216704#29" to="1190158549#0"/>
	<trip id="motorcycle116" type="motorcycle_motorcycle" depart="290.00" departLane="best" from="-921989973#0" to="370138484"/>
	<trip id="motorcycle117" type="motorcycle_motorcycle" depart="292.50" departLane="best" from="371065192#2" to="29032968#4"/>
	<trip id="motorcycle118" type="motorcycle_motorcycle" depart="295.00" departLane="best" from="933228463" to="29034128#1"/>
	<trip id="motorcycle119" type="motorcycle_motorcycle" depart="297.50" departLane="best" from="933225164#8" to="-29031819#11"/>
	<trip id="motorcycle120" type="motorcycle_motorcycle" depart="300.00" departLane="best" from="757102096#0" to="-29034022#1"/>
	<trip id="motorcycle121" type="motorcycle_motorcycle" depart="302.50" departLane="best" from="29720337#2" to="757107600#13"/>
	<trip id="motorcycle122" type="motorcycle_motorcycle" depart="305.00" departLane="best" from="-29862203#1" to="1190158549#12"/>
	<trip id="motorcycle123" type="motorcycle_motorcycle" depart="307.50" departLane="best" from="371052000#3" to="-29031819#8"/>
	<trip id="motorcycle124" type="motorcycle_motorcycle" depart="310.00" departLane="best" from="-370143501#0" to="-933228463"/>
	<trip id="motorcycle125" type="motorcycle_motorcycle" depart="312.50" departLane="best" from="-369798490#6" to="29032963#8"/>
	<trip id="motorcycle126" type="motorcycle_motorcycle" depart="315.00" departLane="best" from="-29870626#1" to="-370138430#0"/>
	<trip id="motorcycle127" type="motorcycle_motorcycle" depart="317.50" departLane="best" from="1327776373" to="29032968#11"/>
	<trip id="motorcycle128" type="motorcycle_motorcycle" depart="320.00" departLane="best" from="757102098#2" to="-370138480"/>
	<trip id="motorcycle129" type="motorcycle_motorcycle" depart="322.50" departLane="best" from="-29858399" to="-29034022#0"/>
	<trip id="motorcycle130" type="motorcycle_motorcycle" depart="325.00" departLane="best" from="-370138570#2" to="-1273580262#0"/>
	<trip id="motorcycle131" type="motorcycle_motorcycle" depart="327.50" departLane="best" from="-918314353#0" to="370138662#3"/>
	<trip id="motorcycle132" type="motorcycle_motorcycle" depart="330.00" departLane="best" from="-370809960#1" to="-371065182#1"/>
	<trip id="motorcycle133" type="motorcycle_motorcycle" depart="332.50" departLane="best" from="-85213314#3" to="29032968#15"/>
	<trip id="motorcycle134" type="motorcycle_motorcycle" depart="335.00" departLane="best" from="918112189#1" to="933767653#1"/>
	<trip id="motorcycle135" type="motorcycle_motorcycle" depart="337.50" departLane="best" from="361899473" to="29031983#3"/>
	<trip id="motorcycle136" type="motorcycle_motorcycle" depart="340.00" departLane="best" from="-370809944#3" to="-370138618"/>
	<trip id="motorcycle137" type="motorcycle_motorcycle" depart="342.50" departLane="best" from="-29863000" to="-29031845#17"/>
	<trip id="motorcycle138" type="motorcycle_motorcycle" depart="345.00" departLane="best" from="-29868731" to="933228445"/>
	<trip id="motorcycle139" type="motorcycle_motorcycle" depart="347.50" departLane="best" from="-29033330#4" to="-29031845#1"/>
	<trip id="motorcycle140" type="motorcycle_motorcycle" depart="350.00" departLane="best" from="29032968#14" to="29034079#6"/>
	<trip id="motorcycle141" type="motorcycle_motorcycle" depart="352.50" departLane="best" from="371065195#1" to="29032902#8"/>
	<trip id="motorcycle142" type="motorcycle_motorcycle" depart="355.00" departLane="best" from="-225880672#1" to="934186394"/>
	<trip id="motorcycle143" type="motorcycle_motorcycle" depart="357.50" departLane="best" from="29858493#3" to="370138643#0"/>
	<trip id="motorcycle144" type="motorcycle_motorcycle" depart="360.00" departLane="best" from="-29871167#3" to="-29031872#0"/>
	<trip id="motorcycle145" type="motorcycle_motorcycle" depart="362.50" departLane="best" from="-29870789" to="370138426#1"/>
	<trip id="motorcycle146" type="motorcycle_motorcycle" depart="365.00" departLane="best" from="29854358" to="933225173#4"/>
	<trip id="motorcycle147" type="motorcycle_motorcycle" depart="367.50" departLane="best" from="29032968#6" to="-29031872#3"/>
	<trip id="motorcycle148" type="motorcycle_motorcycle" depart="370.00" departLane="best" from="921989934" to="-29032902#14"/>
	<trip id="motorcycle149" type="motorcycle_motorcycle" depart="372.50" departLane="best" from="28938890#2" to="-29032990"/>
	<trip id="motorcycle150" type="motorcycle_motorcycle" depart="375.00" departLane="best" from="-29032037#1" to="370138684#0"/>
	<trip id="motorcycle151" type="motorcycle_motorcycle" depart="377.50" departLane="best" from="-29857373#0" to="29034134#3"/>
	<trip id="motorcycle152" type="motorcycle_motorcycle" depart="380.00" departLane="best" from="29870918#0" to="370138516#4"/>
	<trip id="motorcycle153" type="motorcycle_motorcycle" depart="382.50" departLane="best" from="-29720405#0" to="933225173#8"/>
	<trip id="motorcycle154" type="motorcycle_motorcycle" depart="385.00" departLane="best" from="-29859264#2" to="29034121#1"/>
	<trip id="motorcycle155" type="motorcycle_motorcycle" depart="387.50" departLane="best" from="-371065183#1" to="-371065183#0"/>
	<trip id="motorcycle156" type="motorcycle_motorcycle" depart="390.00" departLane="best" from="-29853990#10" to="-29031891#2"/>
	<trip id="motorcycle157" type="motorcycle_motorcycle" depart="392.50" departLane="best" from="29859196" to="-370138572"/>
	<trip id="motorcycle158" type="motorcycle_motorcycle" depart="395.00" departLane="best" from="-29859068" to="-29032964#0"/>
	<trip id="motorcycle159" type="motorcycle_motorcycle" depart="397.50" departLane="best" from="29857439" to="933225166#8"/>
	<trip id="motorcycle160" type="motorcycle_motorcycle" depart="400.00" departLane="best" from="933239108" to="-29031891#3"/>
	<trip id="motorcycle161" type="motorcycle_motorcycle" depart="402.50" departLane="best" from="29858493#4" to="-29031878#1"/>
	<trip id="motorcycle162" type="motorcycle_motorcycle" depart="405.00" departLane="best" from="29861893#1" to="-371065182#1"/>
	<trip id="motorcycle163" type="motorcycle_motorcycle" depart="407.50" departLane="best" from="921930207#1" to="-370138481"/>
	<trip id="motorcycle164" type="motorcycle_motorcycle" depart="410.00" departLane="best" from="29033034#6" to="29917315#3"/>
	<trip id="motorcycle165" type="motorcycle_motorcycle" depart="412.50" departLane="best" from="371051984" to="-29034092#2"/>
	<trip id="motorcycle166" type="motorcycle_motorcycle" depart="415.00" departLane="best" from="933225163#1" to="933216709#0"/>
	<trip id="motorcycle167" type="motorcycle_motorcycle" depart="417.50" departLane="best" from="361899471#5" to="-934172718"/>
	<trip id="motorcycle168" type="motorcycle_motorcycle" depart="420.00" departLane="best" from="371052008#1" to="-29033034#0"/>
	<trip id="motorcycle169" type="motorcycle_motorcycle" depart="422.50" departLane="best" from="371051983" to="370138654#0"/>
	<trip id="motorcycle170" type="motorcycle_motorcycle" depart="425.00" departLane="best" from="361899480#3" to="29031895#3"/>
	<trip id="motorcycle171" type="motorcycle_motorcycle" depart="427.50" departLane="best" from="-29870918#7" to="29034079#1"/>
	<trip id="motorcycle172" type="motorcycle_motorcycle" depart="430.00" departLane="best" from="29871899#0" to="1273243125#0"/>
	<trip id="motorcycle173" type="motorcycle_motorcycle" depart="432.50" departLane="best" from="-918680935" to="1273580263"/>
	<trip id="motorcycle174" type="motorcycle_motorcycle" depart="435.00" departLane="best" from="-310184011#3" to="29032964#2"/>
	<trip id="motorcycle175" type="motorcycle_motorcycle" depart="437.50" departLane="best" from="757102089#7" to="29031931#4"/>
	<trip id="motorcycle176" type="motorcycle_motorcycle" depart="440.00" departLane="best" from="-29034328#5" to="29031997#4"/>
	<trip id="motorcycle177" type="motorcycle_motorcycle" depart="442.50" departLane="best" from="-29033034#4" to="29031872#1"/>
	<trip id="motorcycle178" type="motorcycle_motorcycle" depart="445.00" departLane="best" from="920074700" to="-371065192#0"/>
	<trip id="motorcycle179" type="motorcycle_motorcycle" depart="447.50" departLane="best" from="29871492#1" to="-370138662#2"/>
	<trip id="motorcycle180" type="motorcycle_motorcycle" depart="450.00" departLane="best" from="29033087" to="370138646#0"/>
	<trip id="motorcycle181" type="motorcycle_motorcycle" depart="452.50" departLane="best" from="29854369#1" to="-29034025"/>
	<trip id="motorcycle182" type="motorcycle_motorcycle" depart="455.00" departLane="best" from="-370138672#0" to="-370138430#2"/>
	<trip id="motorcycle183" type="motorcycle_motorcycle" depart="457.50" departLane="best" from="-370138619#1" to="-29031917#0"/>
	<trip id="motorcycle184" type="motorcycle_motorcycle" depart="460.00" departLane="best" from="-29862953" to="933216709#0"/>
	<trip id="motorcycle185" type="motorcycle_motorcycle" depart="462.50" departLane="best" from="29032968#13" to="-29034135#1"/>
	<trip id="motorcycle186" type="motorcycle_motorcycle" depart="465.00" departLane="best" from="918314351#8" to="-370138602#2"/>
	<trip id="motorcycle187" type="motorcycle_motorcycle" depart="467.50" departLane="best" from="-921989943#1" to="933228449"/>
	<trip id="motorcycle188" type="motorcycle_motorcycle" depart="470.00" departLane="best" from="29034328#7" to="-370138425#3"/>
	<trip id="motorcycle189" type="motorcycle_motorcycle" depart="472.50" departLane="best" from="29032038#2" to="29033019"/>
	<trip id="motorcycle190" type="motorcycle_motorcycle" depart="475.00" departLane="best" from="-310184011#4" to="-370138433#3"/>
	<trip id="motorcycle191" type="motorcycle_motorcycle" depart="477.50" departLane="best" from="-1305387058" to="-29031845#2"/>
	<trip id="motorcycle192" type="motorcycle_motorcycle" depart="480.00" departLane="best" from="371065198#3" to="-29034086#1"/>
	<trip id="motorcycle193" type="motorcycle_motorcycle" depart="482.50" departLane="best" from="29032077#3" to="1316335748"/>
	<trip id="motorcycle194" type="motorcycle_motorcycle" depart="485.00" departLane="best" from="29033034#2" to="-369963708#5"/>
	<trip id="motorcycle195" type="motorcycle_motorcycle" depart="487.50" departLane="best" from="-370809949#3" to="-29031819#8"/>
	<trip id="motorcycle196" type="motorcycle_motorcycle" depart="490.00" departLane="best" from="29034363" to="-29031997#0"/>
	<trip id="motorcycle197" type="motorcycle_motorcycle" depart="492.50" departLane="best" from="-29867919#2" to="933225164#0"/>
	<trip id="motorcycle198" type="motorcycle_motorcycle" depart="495.00" departLane="best" from="914025061#4" to="-29031819#10"/>
	<trip id="motorcycle199" type="motorcycle_motorcycle" depart="497.50" departLane="best" from="-29720215" to="29031845#4"/>
	<trip id="motorcycle200" type="motorcycle_motorcycle" depart="500.00" departLane="best" from="29034370#0" to="934172694"/>
	<trip id="motorcycle201" type="motorcycle_motorcycle" depart="502.50" departLane="best" from="29862359#3" to="-370138491"/>
	<trip id="motorcycle202" type="motorcycle_motorcycle" depart="505.00" departLane="best" from="29859280#0" to="-29032037#0"/>
	<trip id="motorcycle203" type="motorcycle_motorcycle" depart="507.50" departLane="best" from="310184011#4" to="370138684#1"/>
	<trip id="motorcycle204" type="motorcycle_motorcycle" depart="510.00" departLane="best" from="29871225" to="29031931#3"/>
	<trip id="motorcycle205" type="motorcycle_motorcycle" depart="512.50" departLane="best" from="225880677" to="-29031845#7"/>
	<trip id="motorcycle206" type="motorcycle_motorcycle" depart="515.00" departLane="best" from="29859161#0" to="370138491"/>
	<trip id="motorcycle207" type="motorcycle_motorcycle" depart="517.50" departLane="best" from="29036059#3" to="-29031872#4"/>
	<trip id="motorcycle208" type="motorcycle_motorcycle" depart="520.00" departLane="best" from="-370809881#5" to="933225173#7"/>
	<trip id="motorcycle209" type="motorcycle_motorcycle" depart="522.50" departLane="best" from="-918680939#1" to="933225166#2"/>
	<trip id="motorcycle210" type="motorcycle_motorcycle" depart="525.00" departLane="best" from="370138558#1" to="29033034#6"/>
	<trip id="motorcycle211" type="motorcycle_motorcycle" depart="527.50" departLane="best" from="371065196#2" to="-29034134#2"/>
	<trip id="motorcycle212" type="motorcycle_motorcycle" depart="530.00" departLane="best" from="29867919#2" to="-29031931#5"/>
	<trip id="motorcycle213" type="motorcycle_motorcycle" depart="532.50" departLane="best" from="-29871534#0" to="370138577#1"/>
	<trip id="motorcycle214" type="motorcycle_motorcycle" depart="535.00" departLane="best" from="914025063#3" to="-370138454"/>
	<trip id="motorcycle215" type="motorcycle_motorcycle" depart="537.50" departLane="best" from="29861427#0" to="933225165#1"/>
	<trip id="motorcycle216" type="motorcycle_motorcycle" depart="540.00" departLane="best" from="-29860663" to="-1273576290#0"/>
	<trip id="motorcycle217" type="motorcycle_motorcycle" depart="542.50" departLane="best" from="370809885#9" to="934172720"/>
	<trip id="motorcycle218" type="motorcycle_motorcycle" depart="545.00" departLane="best" from="-371052000#6" to="-29033106"/>
	<trip id="motorcycle219" type="motorcycle_motorcycle" depart="547.50" departLane="best" from="-29871380" to="370138433#3"/>
	<trip id="motorcycle220" type="motorcycle_motorcycle" depart="550.00" departLane="best" from="1132717781#1" to="757107600#7"/>
	<trip id="motorcycle221" type="motorcycle_motorcycle" depart="552.50" departLane="best" from="371065188#1" to="-29032965#0"/>
	<trip id="motorcycle222" type="motorcycle_motorcycle" depart="555.00" departLane="best" from="-29034255" to="370138495"/>
	<trip id="motorcycle223" type="motorcycle_motorcycle" depart="557.50" departLane="best" from="-29857947#2" to="29032902#10"/>
	<trip id="motorcycle224" type="motorcycle_motorcycle" depart="560.00" departLane="best" from="-371051975" to="-29032985"/>
	<trip id="motorcycle225" type="motorcycle_motorcycle" depart="562.50" departLane="best" from="920074689" to="933228448"/>
	<trip id="motorcycle226" type="motorcycle_motorcycle" depart="565.00" departLane="best" from="-371065198#0" to="370138601"/>
	<trip id="motorcycle227" type="motorcycle_motorcycle" depart="567.50" departLane="best" from="-934172671#2" to="1076768587"/>
	<trip id="motorcycle228" type="motorcycle_motorcycle" depart="570.00" departLane="best" from="-29857853#1" to="-933771084"/>
	<trip id="motorcycle229" type="motorcycle_motorcycle" depart="572.50" departLane="best" from="29861385#0" to="-29917315#2"/>
	<trip id="motorcycle230" type="motorcycle_motorcycle" depart="575.00" departLane="best" from="-29859106#0" to="-933239094"/>
	<trip id="motorcycle231" type="motorcycle_motorcycle" depart="577.50" departLane="best" from="-29858337#0" to="29034079#4"/>
	<trip id="motorcycle232" type="motorcycle_motorcycle" depart="580.00" departLane="best" from="29870918#7" to="-29031845#7"/>
	<trip id="motorcycle233" type="motorcycle_motorcycle" depart="582.50" departLane="best" from="933216704#41" to="29034085#9"/>
	<trip id="motorcycle234" type="motorcycle_motorcycle" depart="585.00" departLane="best" from="-29872077" to="-29917315#1"/>
	<trip id="motorcycle235" type="motorcycle_motorcycle" depart="587.50" departLane="best" from="-29033330#12" to="-29031845#3"/>
	<trip id="motorcycle236" type="motorcycle_motorcycle" depart="590.00" departLane="best" from="29031926#11" to="-29034117#0"/>