<routes xmlns:xsi="http://www.w3.org/2001/XMLSchema-instance" xsi:noNamespaceSchemaLocation="http://sumo.dlr.de/xsd/routes_file.xsd">
	<vType id="motorcycle_motorcycle" vClass="motorcycle"/>
	<trip id="motorcycle0" type="motorcycle_motorcycle" depart="0.00" departLane="best" from="-29875672#0" to="29873772#5"/>
	<trip id="motorcycle1" type="motorcycle_motorcycle" depart="2.00" departLane="best" from="757102089#7" to="-29895497#13"/>
	<trip id="motorcycle2" type="motorcycle_motorcycle" depart="4.00" departLane="best" from="922051269" to="-29895497#11"/>
	<trip id="motorcycle3" type="motorcycle_motorcycle" depart="6.00" departLane="best" from="933216699#0" to="-29895711#0"/>
	<trip id="motorcycle4" type="motorcycle_motorcycle" depart="8.00" departLane="best" from="-29866474#0" to="29312028#1"/>
	<trip id="motorcycle5" type="motorcycle_motorcycle" depart="10.00" departLane="best" from="-818305718" to="29895601"/>
	<trip id="motorcycle6" type="motorcycle_motorcycle" depart="12.00" departLane="best" from="371051957#1" to="-29896202#0"/>
	<trip id="motorcycle7" type="motorcycle_motorcycle" depart="14.00" departLane="best" from="-29031979" to="-29896177#0"/>
	<trip id="motorcycle8" type="motorcycle_motorcycle" depart="16.00" departLane="best" from="-934172679" to="29896124#5"/>
	<trip id="motorcycle9" type="motorcycle_motorcycle" depart="18.00" departLane="best" from="29719421#15" to="29896304#1"/>
	<trip id="motorcycle10" type="motorcycle_motorcycle" depart="20.00" departLane="best" from="-933216704#21" to="-29895567#0"/>
	<trip id="motorcycle11" type="motorcycle_motorcycle" depart="22.00" departLane="best" from="933239114#4" to="-29895584#0"/>
	<trip id="motorcycle12" type="motorcycle_motorcycle" depart="24.00" departLane="best" from="371065182#1" to="-29895733#0"/>
	<trip id="motorcycle13" type="motorcycle_motorcycle" depart="26.00" departLane="best" from="-29871625#0" to="29896202#0"/>
	<trip id="motorcycle14" type="motorcycle_motorcycle" depart="28.00" departLane="best" from="934707519#0" to="29895734#0"/>
	<trip id="motorcycle15" type="motorcycle_motorcycle" depart="30.00" departLane="best" from="29869753" to="-29895810#1"/>
	<trip id="motorcycle16" type="motorcycle_motorcycle" depart="32.00" departLane="best" from="833120936#6" to="29895611#2"/>
	<trip id="motorcycle17" type="motorcycle_motorcycle" depart="34.00" departLane="best" from="-29034356" to="29895661#2"/>
	<trip id="motorcycle18" type="motorcycle_motorcycle" depart="36.00" departLane="best" from="371052000#16" to="29895730#0"/>
	<trip id="motorcycle19" type="motorcycle_motorcycle" depart="38.00" departLane="best" from="-933230250#0" to="29895497#16"/>
	<trip id="motorcycle20" type="motorcycle_motorcycle" depart="40.00" departLane="best" from="933225164#2" to="29895804#2"/>
	<trip id="motorcycle21" type="motorcycle_motorcycle" depart="42.00" departLane="best" from="-371051981#0" to="-29895575#0"/>
	<trip id="motorcycle22" type="motorcycle_motorcycle" depart="44.00" departLane="best" from="933212337" to="-29895733#0"/>
	<trip id="motorcycle23" type="motorcycle_motorcycle" depart="46.00" departLane="best" from="29855261#7" to="369963769"/>
	<trip id="motorcycle24" type="motorcycle_motorcycle" depart="48.00" departLane="best" from="310184008#5" to="-29895651#4"/>
	<trip id="motorcycle25" type="motorcycle_motorcycle" depart="50.00" departLane="best" from="719056985" to="-29895497#23"/>
	<trip id="motorcycle26" type="motorcycle_motorcycle" depart="52.00" departLane="best" from="-933269869" to="-933123787#1"/>
	<trip id="motorcycle27" type="motorcycle_motorcycle" depart="54.00" departLane="best" from="-370138429#3" to="29312028#6"/>
	<trip id="motorcycle28" type="motorcycle_motorcycle" depart="56.00" departLane="best" from="-29034278#0" to="29895651#9"/>
	<trip id="motorcycle29" type="motorcycle_motorcycle" depart="58.00" departLane="best" from="-29854805#1" to="29896175#2"/>
	<trip id="motorcycle30" type="motorcycle_motorcycle" depart="60.00" departLane="best" from="-921989939#1" to="29895727#2"/>
	<trip id="motorcycle31" type="motorcycle_motorcycle" depart="62.00" departLane="best" from="-29855284#2" to="933123785"/>
	<trip id="motorcycle32" type="motorcycle_motorcycle" depart="64.00" departLane="best" from="-29857868#1" to="-29895497#16"/>
	<trip id="motorcycle33" type="motorcycle_motorcycle" depart="66.00" departLane="best" from="371065195#4" to="-29895912#1"/>
	<trip id="motorcycle34" type="motorcycle_motorcycle" depart="68.00" departLane="best" from="-370138605#2" to="29312028#1"/>
	<trip id="motorcycle35" type="motorcycle_motorcycle" depart="70.00" departLane="best" from="29034335#2" to="29312028#2"/>
	<trip id="motorcycle36" type="motorcycle_motorcycle" depart="72.00" departLane="best" from="-29853990#4" to="29895759#0"/>
	<trip id="motorcycle37" type="motorcycle_motorcycle" depart="74.00" departLane="best" from="370138637" to="29895943#1"/>
	<trip id="motorcycle38" type="motorcycle_motorcycle" depart="76.00" departLane="best" from="370143460" to="-29895575#0"/>
	<trip id="motorcycle39" type="motorcycle_motorcycle" depart="78.00" departLane="best" from="757107617" to="-29895912#1"/>
	<trip id="motorcycle40" type="motorcycle_motorcycle" depart="80.00" departLane="best" from="370138595" to="-933123787#1"/>
	<trip id="motorcycle41" type="motorcycle_motorcycle" depart="82.00" departLane="best" from="-1305692915" to="29895805#1"/>
	<trip id="motorcycle42" type="motorcycle_motorcycle" depart="84.00" departLane="best" from="933255410" to="369963749"/>
	<trip id="motorcycle43" type="motorcycle_motorcycle" depart="86.00" departLane="best" from="934172721" to="-369963743"/>
	<trip id="motorcycle44" type="motorcycle_motorcycle" depart="88.00" departLane="best" from="29034471#2" to="29895618#0"/>
	<trip id="motorcycle45" type="motorcycle_motorcycle" depart="90.00" departLane="best" from="29855261#2" to="-29896595#3"/>
	<trip id="motorcycle46" type="motorcycle_motorcycle" depart="92.00" departLane="best" from="-29034484" to="933114643#3"/>
	<trip id="motorcycle47" type="motorcycle_motorcycle" depart="94.00" departLane="best" from="933216704#19" to="-29895804#2"/>
	<trip id="motorcycle48" type="motorcycle_motorcycle" depart="96.00" departLane="best" from="933216704#26" to="29895862"/>
	<trip id="motorcycle49" type="motorcycle_motorcycle" depart="98.00" departLane="best" from="719056970#2" to="-29896125#2"/>
	<trip id="motorcycle50" type="motorcycle_motorcycle" depart="100.00" departLane="best" from="-932761301" to="29896661#1"/>
	<trip id="motorcycle51" type="motorcycle_motorcycle" depart="102.00" departLane="best" from="-918680933#3" to="-29895651#9"/>
	<trip id="motorcycle52" type="motorcycle_motorcycle" depart="104.00" departLane="best" from="29870918#11" to="-29895651#9"/>
	<trip id="motorcycle53" type="motorcycle_motorcycle" depart="106.00" departLane="best" from="371051987#13" to="29895720#0"/>
	<trip id="motorcycle54" type="motorcycle_motorcycle" depart="108.00" departLane="best" from="-818305716" to="-29895651#10"/>
	<trip id="motorcycle55" type="motorcycle_motorcycle" depart="110.00" departLane="best" from="757107600#12" to="-934674669"/>
	<trip id="motorcycle56" type="motorcycle_motorcycle" depart="112.00" departLane="best" from="29033034#5" to="-29895852#5"/>
	<trip id="motorcycle57" type="motorcycle_motorcycle" depart="114.00" departLane="best" from="29854347#1" to="-369963783#0"/>
	<trip id="motorcycle58" type="motorcycle_motorcycle" depart="116.00" departLane="best" from="918320653#15" to="-29896595#0"/>
	<trip id="motorcycle59" type="motorcycle_motorcycle" depart="118.00" departLane="best" from="921930226#19" to="-29895409#7"/>
	<trip id="motorcycle60" type="motorcycle_motorcycle" depart="120.00" departLane="best" from="-29035905#2" to="1049299642"/>
	<trip id="motorcycle61" type="motorcycle_motorcycle" depart="122.00" departLane="best" from="1214772052#1" to="29896595#0"/>
	<trip id="motorcycle62" type="motorcycle_motorcycle" depart="124.00" departLane="best" from="757102096#0" to="-29166752#27"/>
	<trip id="motorcycle63" type="motorcycle_motorcycle" depart="126.00" departLane="best" from="-933269844" to="29896304#1"/>
	<trip id="motorcycle64" type="motorcycle_motorcycle" depart="128.00" departLane="best" from="1190158549#7" to="29895682#1"/>
	<trip id="motorcycle65" type="motorcycle_motorcycle" depart="130.00" departLane="best" from="-1043419598" to="29166752#22"/>
	<trip id="motorcycle66" type="motorcycle_motorcycle" depart="132.00" departLane="best" from="29034314#4" to="29896609#3"/>
	<trip id="motorcycle67" type="motorcycle_motorcycle" depart="134.00" departLane="best" from="-370138424#5" to="29895920"/>
	<trip id="motorcycle68" type="motorcycle_motorcycle" depart="136.00" departLane="best" from="29873138#4" to="369963805#0"/>
	<trip id="motorcycle69" type="motorcycle_motorcycle" depart="138.00" departLane="best" from="933230247#5" to="370844621#2"/>
	<trip id="motorcycle70" type="motorcycle_motorcycle" depart="140.00" departLane="best" from="-29854347#1" to="-29166752#20"/>
	<trip id="motorcycle71" type="motorcycle_motorcycle" depart="142.00" departLane="best" from="933269853#1" to="29166752#22"/>
	<trip id="motorcycle72" type="motorcycle_motorcycle" depart="144.00" departLane="best" from="29855083#4" to="29896317#0"/>
	<trip id="motorcycle73" type="motorcycle_motorcycle" depart="146.00" departLane="best" from="-29034291" to="-29895804#0"/>
	<trip id="motorcycle74" type="motorcycle_motorcycle" depart="148.00" departLane="best" from="921989989" to="-29896321"/>
	<trip id="motorcycle75" type="motorcycle_motorcycle" depart="150.00" departLane="best" from="757107600#13" to="-29895867"/>
	<trip id="motorcycle76" type="motorcycle_motorcycle" depart="152.00" departLane="best" from="921989939#0" to="-29312028#8"/>
	<trip id="motorcycle77" type="motorcycle_motorcycle" depart="154.00" departLane="best" from="-371052011" to="933114643#7"/>
	<trip id="motorcycle78" type="motorcycle_motorcycle" depart="156.00" departLane="best" from="-934172685#0" to="933114643#5"/>
	<trip id="motorcycle79" type="motorcycle_motorcycle" depart="158.00" departLane="best" from="-370143476#1" to="29895651#2"/>
	<trip id="motorcycle80" type="motorcycle_motorcycle" depart="160.00" departLane="best" from="-29858761" to="934674669"/>
	<trip id="motorcycle81" type="motorcycle_motorcycle" depart="162.00" departLane="best" from="29033034#2" to="-29896204#1"/>
	<trip id="motorcycle82" type="motorcycle_motorcycle" depart="164.00" departLane="best" from="-371065186#1" to="-29895584#8"/>
	<trip id="motorcycle83" type="motorcycle_motorcycle" depart="166.00" departLane="best" from="29868731" to="-29895720#0"/>
	<trip id="motorcycle84" type="motorcycle_motorcycle" depart="168.00" departLane="best" from="370138584#1" to="29895497#9"/>
	<trip id="motorcycle85" type="motorcycle_motorcycle" depart="170.00" departLane="best" from="29856276" to="29895497#12"/>
	<trip id="motorcycle86" type="motorcycle_motorcycle" depart="172.00" departLane="best" from="-29034486" to="-29895584#8"/>
	<trip id="motorcycle87" type="motorcycle_motorcycle" depart="174.00" departLane="best" from="-29854622#0" to="-29895737"/>
	<trip id="motorcycle88" type="motorcycle_motorcycle" depart="176.00" departLane="best" from="-918320660#2" to="29895711#0"/>
	<trip id="motorcycle89" type="motorcycle_motorcycle" depart="178.00" departLane="best" from="-29854025" to="29895734#1"/>
	<trip id="motorcycle90" type="motorcycle_motorcycle" depart="180.00" departLane="best" from="-818305715" to="29312028#8"/>
	<trip id="motorcycle91" type="motorcycle_motorcycle" depart="182.00" departLane="best" from="-371052000#19" to="-29896136#1"/>
	<trip id="motorcycle92" type="motorcycle_motorcycle" depart="184.00" departLane="best" from="370143483" to="-29895804#2"/>
	<trip id="motorcycle93" type="motorcycle_motorcycle" depart="186.00" departLane="best" from="-29859239" to="-29895891"/>
	<trip id="motorcycle94" type="motorcycle_motorcycle" depart="188.00" departLane="best" from="933239110" to="29895651#1"/>
	<trip id="motorcycle95" type="motorcycle_motorcycle" depart="190.00" departLane="best" from="310184008#4" to="-29895711#0"/>
	<trip id="motorcycle96" type="motorcycle_motorcycle" depart="192.00" departLane="best" from="29871167#1" to="29895817"/>
	<trip id="motorcycle97" type="motorcycle_motorcycle" depart="194.00" departLane="best" from="934172718" to="-29895850#0"/>
	<trip id="motorcycle98" type="motorcycle_motorcycle" depart="196.00" departLane="best" from="370138487" to="29895943#1"/>
	<trip id="motorcycle99" type="motorcycle_motorcycle" depart="198.00" departLane="best" from="-370138464" to="29896154#6"/>
	<trip id="motorcycle100" type="motorcycle_motorcycle" depart="200.00" departLane="best" from="29720389#0" to="-29895850#6"/>
	<trip id="motorcycle101" type="motorcycle_motorcycle" depart="202.00" departLane="best" from="757107612#4" to="29895852#8"/>
	<trip id="motorcycle102" type="motorcycle_motorcycle" depart="204.00" departLane="best" from="29034297#1" to="-934674669"/>
	<trip id="motorcycle103" type="motorcycle_motorcycle" depart="206.00" departLane="best" from="29870604#1" to="933114643#3"/>
	<trip id="motorcycle104" type="motorcycle_motorcycle" depart="208.00" departLane="best" from="-29857735#0" to="29895727#2"/>
	<trip id="motorcycle105" type="motorcycle_motorcycle" depart="210.00" departLane="best" from="757102089#10" to="29896629"/>
	<trip id="motorcycle106" type="motorcycle_motorcycle" depart="212.00" departLane="best" from="29034374#2" to="29895812#2"/>
	<trip id="motorcycle107" type="motorcycle_motorcycle" depart="214.00" departLane="best" from="933239102" to="29895804#0"/>
	<trip id="motorcycle108" type="motorcycle_motorcycle" depart="216.00" departLane="best" from="-371052004#3" to="933114642#10"/>
	<trip id="motorcycle109" type="motorcycle_motorcycle" depart="218.00" departLane="best" from="371051988#1" to="-29895733#0"/>
	<trip id="motorcycle110" type="motorcycle_motorcycle" depart="220.00" departLane="best" from="29872447" to="-29895733#1"/>
	<trip id="motorcycle111" type="motorcycle_motorcycle" depart="222.00" departLane="best" from="-933212339" to="29895901#0"/>
	<trip id="motorcycle112" type="motorcycle_motorcycle" depart="224.00" departLane="best" from="29034354#3" to="29895924#1"/>
	<trip id="motorcycle113" type="motorcycle_motorcycle" depart="226.00" departLane="best" from="-29860618" to="-29895497#14"/>
	<trip id="motorcycle114" type="motorcycle_motorcycle" depart="228.00" departLane="best" from="29857599" to="-29895651#7"/>
	<trip id="motorcycle115" type="motorcycle_motorcycle" depart="230.00" departLane="best" from="-29032902#11" to="-29895852#1"/>
	<trip id="motorcycle116" type="motorcycle_motorcycle" depart="232.00" departLane="best" from="29031980#0" to="29895651#4"/>
	<trip id="motorcycle117" type="motorcycle_motorcycle" depart="234.00" departLane="best" from="-29034328#15" to="-29895850#6"/>
	<trip id="motorcycle118" type="motorcycle_motorcycle" depart="236.00" departLane="best" from="757102092#1" to="29895920"/>
	<trip id="motorcycle119" type="motorcycle_motorcycle" depart="238.00" departLane="best" from="-370138423#1" to="-29895497#24"/>
	<trip id="motorcycle120" type="motorcycle_motorcycle" depart="240.00" departLane="best" from="29876546#62" to="29895601"/>
	<trip id="motorcycle121" type="motorcycle_motorcycle" depart="242.00" departLane="best" from="370138551#1" to="-29895759#0"/>
	<trip id="motorcycle122" type="motorcycle_motorcycle" depart="244.00" departLane="best" from="29873330" to="29166752#25"/>
	<trip id="motorcycle123" type="motorcycle_motorcycle" depart="246.00" departLane="best" from="29872448#0" to="933114642#6"/>
	<trip id="motorcycle124" type="motorcycle_motorcycle" depart="248.00" departLane="best" from="-371051963" to="933123787#3"/>
	<trip id="motorcycle125" type="motorcycle_motorcycle" depart="250.00" departLane="best" from="-29853864" to="-29895497#22"/>
	<trip id="motorcycle126" type="motorcycle_motorcycle" depart="252.00" departLane="best" from="29033034#4" to="-29895852#8"/>
	<trip id="motorcycle127" type="motorcycle_motorcycle" depart="254.00" departLane="best" from="29873188#2" to="29896321"/>
	<trip id="motorcycle128" type="motorcycle_motorcycle" depart="256.00" departLane="best" from="29858436#1" to="-29895850#3"/>
	<trip id="motorcycle129" type="motorcycle_motorcycle" depart="258.00" departLane="best" from="-310184007#1" to="29895759#2"/>
	<trip id="motorcycle130" type="motorcycle_motorcycle" depart="260.00" departLane="best" from="833120936#7" to="-29895926"/>
	<trip id="motorcycle131" type="motorcycle_motorcycle" depart="262.00" departLane="best" from="-371065186#6" to="29895852#1"/>
	<trip id="motorcycle132" type="motorcycle_motorcycle" depart="264.00" departLane="best" from="29032109#0" to="-29895622#0"/>
	<trip id="motorcycle133" type="motorcycle_motorcycle" depart="266.00" departLane="best" from="-371065186#9" to="-29895711#1"/>
	<trip id="motorcycle134" type="motorcycle_motorcycle" depart="268.00" departLane="best" from="29872499#10" to="29895679#1"/>
	<trip id="motorcycle135" type="motorcycle_motorcycle" depart="270.00" departLane="best" from="932761288#4" to="933114643#11"/>
	<trip id="motorcycle136" type="motorcycle_motorcycle" depart="272.00" departLane="best" from="-371051981#0" to="369963743"/>
	<trip id="motorcycle137" type="motorcycle_motorcycle" depart="274.00" departLane="best" from="1218172594#1" to="29895771"/>
	<trip id="motorcycle138" type="motorcycle_motorcycle" depart="276.00" departLane="best" from="29035951#1" to="29896124#3"/>
	<trip id="motorcycle139" type="motorcycle_motorcycle" depart="278.00" departLane="best" from="29858493#2" to="-29166752#21"/>
	<trip id="motorcycle140" type="motorcycle_motorcycle" depart="280.00" departLane="best" from="-29034432" to="-29895814"/>
	<trip id="motorcycle141" type="motorcycle_motorcycle" depart="282.00" departLane="best" from="-29034506#0" to="29895850#6"/>
	<trip id="motorcycle142" type="motorcycle_motorcycle" depart="284.00" departLane="best" from="29866904" to="-29896609#2"/>
	<trip id="motorcycle143" type="motorcycle_motorcycle" depart="286.00" departLane="best" from="-370143476#1" to="29895727#1"/>
	<trip id="motorcycle144" type="motorcycle_motorcycle" depart="288.00" departLane="best" from="-29854805#2" to="-29895901#0"/>
	<trip id="motorcycle145" type="motorcycle_motorcycle" depart="290.00" departLane="best" from="-370138613#0" to="29895611#0"/>
	<trip id="motorcycle146" type="motorcycle_motorcycle" depart="292.00" departLane="best" from="370138660#1" to="-29895805#1"/>
	<trip id="motorcycle147" type="motorcycle_motorcycle" depart="294.00" departLane="best" from="371065194#1" to="29896202#0"/>
	<trip id="motorcycle148" type="motorcycle_motorcycle" depart="296.00" departLane="best" from="-29872244" to="29895850#5"/>
	<trip id="motorcycle149" type="motorcycle_motorcycle" depart="298.00" departLane="best" from="-29719803#2" to="-29895890"/>
	<trip id="motorcycle150" type="motorcycle_motorcycle" depart="300.00" departLane="best" from="-29862203#0" to="29896175#1"/>
	<trip id="motorcycle151" type="motorcycle_motorcycle" depart="302.00" departLane="best" from="370138429#1" to="29895730#0"/>
	<trip id="motorcycle152" type="motorcycle_motorcycle" depart="304.00" departLane="best" from="29858987#1" to="933114642#8"/>
	<trip id="motorcycle153" type="motorcycle_motorcycle" depart="306.00" departLane="best" from="918320653#4" to="-29896321"/>
	<trip id="motorcycle154" type="motorcycle_motorcycle" depart="308.00" departLane="best" from="933230247#17" to="-29896304#1"/>
	<trip id="motorcycle155" type="motorcycle_motorcycle" depart="310.00" departLane="best" from="-29871492#0" to="29895852#0"/>
	<trip id="motorcycle156" type="motorcycle_motorcycle" depart="312.00" departLane="best" from="757101440#3" to="29895679#0"/>
	<trip id="motorcycle157" type="motorcycle_motorcycle" depart="314.00" departLane="best" from="29855102#2" to="-29896661#0"/>
	<trip id="motorcycle158" type="motorcycle_motorcycle" depart="316.00" departLane="best" from="29870918#9" to="29895409#6"/>
	<trip id="motorcycle159" type="motorcycle_motorcycle" depart="318.00" departLane="best" from="-85213314#4" to="-29896124#7"/>
	<trip id="motorcycle160" type="motorcycle_motorcycle" depart="320.00" departLane="best" from="29855261#6" to="29895852#6"/>
	<trip id="motorcycle161" type="motorcycle_motorcycle" depart="322.00" departLane="best" from="371065195#2" to="-29896154#7"/>
	<trip id="motorcycle162" type="motorcycle_motorcycle" depart="324.00" departLane="best" from="918680930" to="-369963769"/>
	<trip id="motorcycle163" type="motorcycle_motorcycle" depart="326.00" departLane="best" from="29853990#2" to="-29311996#0"/>
	<trip id="motorcycle164" type="motorcycle_motorcycle" depart="328.00" departLane="best" from="29870771#0" to="-933123787#2"/>
	<trip id="motorcycle165" type="motorcycle_motorcycle" depart="330.00" departLane="best" from="757102089#5" to="-29895711#0"/>
	<trip id="motorcycle166" type="motorcycle_motorcycle" depart="332.00" departLane="best" from="371051968" to="29895890"/>
	<trip id="motorcycle167" type="motorcycle_motorcycle" depart="334.00" departLane="best" from="-29032963#1" to="-29895409#8"/>
	<trip id="motorcycle168" type="motorcycle_motorcycle" depart="336.00" departLane="best" from="-370138517" to="29895584#1"/>
	<trip id="motorcycle169" type="motorcycle_motorcycle" depart="338.00" departLane="best" from="757107600#8" to="-29166752#24"/>
	<trip id="motorcycle170" type="motorcycle_motorcycle" depart="340.00" departLane="best" from="918320653#15" to="29896321"/>
	<trip id="motorcycle171" type="motorcycle_motorcycle" depart="342.00" departLane="best" from="370138682#2" to="-29312028#8"/>
	<trip id="motorcycle172" type="motorcycle_motorcycle" depart="344.00" departLane="best" from="29870604#1" to="29895611#1"/>
	<trip id="motorcycle173" type="motorcycle_motorcycle" depart="346.00" departLane="best" from="29032904#2" to="29896609#0"/>
	<trip id="motorcycle174" type="motorcycle_motorcycle" depart="348.00" departLane="best" from="921989980" to="-29895850#3"/>
	<trip id="motorcycle175" type="motorcycle_motorcycle" depart="350.00" departLane="best" from="29867483#1" to="29895651#6"/>
	<trip id="motorcycle176" type="motorcycle_motorcycle" depart="352.00" departLane="best" from="-29872403#0" to="29896595#0"/>
	<trip id="motorcycle177" type="motorcycle_motorcycle" depart="354.00" departLane="best" from="-818305719" to="29896154#3"/>
	<trip id="motorcycle178" type="motorcycle_motorcycle" depart="356.00" departLane="best" from="-29033330#12" to="-29895912#1"/>
	<trip id="motorcycle179" type="motorcycle_motorcycle" depart="358.00" departLane="best" from="-29034427#2" to="29895812#0"/>
	<trip id="motorcycle180" type="motorcycle_motorcycle" depart="360.00" departLane="best" from="371052000#19" to="933114642#9"/>
	<trip id="motorcycle181" type="motorcycle_motorcycle" depart="362.00" departLane="best" from="-371052008#3" to="-933123787#1"/>
	<trip id="motorcycle182" type="motorcycle_motorcycle" depart="364.00" departLane="best" from="918680940" to="-29895611#2"/>
	<trip id="motorcycle183" type="motorcycle_motorcycle" depart="366.00" departLane="best" from="-370138644#0" to="-29895580#0"/>
	<trip id="motorcycle184" type="motorcycle_motorcycle" depart="368.00" departLane="best" from="-1059803886#2" to="-29896175#0"/>
	<trip id="motorcycle185" type="motorcycle_motorcycle" depart="370.00" departLane="best" from="932761288#0" to="933114642#7"/>
	<trip id="motorcycle186" type="motorcycle_motorcycle" depart="372.00" departLane="best" from="371051987#11" to="933114643#6"/>
	<trip id="motorcycle187" type="motorcycle_motorcycle" depart="374.00" departLane="best" from="29855495" to="29896646"/>
	<trip id="motorcycle188" type="motorcycle_motorcycle" depart="376.00" departLane="best" from="933269857#4" to="29895943#2"/>
	<trip id="motorcycle189" type="motorcycle_motorcycle" depart="378.00" departLane="best" from="921930223#5" to="-370844621#2"/>
	<trip id="motorcycle190" type="motorcycle_motorcycle" depart="380.00" departLane="best" from="1287048364#2" to="29895867"/>
	<trip id="motorcycle191" type="motorcycle_motorcycle" depart="382.00" departLane="best" from="-29858940#1" to="-29896136#2"/>
	<trip id="motorcycle192" type="motorcycle_motorcycle" depart="384.00" departLane="best" from="921989990" to="-29166752#21"/>
	<trip id="motorcycle193" type="motorcycle_motorcycle" depart="386.00" departLane="best" from="-29873212#1" to="29895651#4"/>
	<trip id="motorcycle194" type="motorcycle_motorcycle" depart="388.00" departLane="best" from="29034483#2" to="-29895879#1"/>
	<trip id="motorcycle195" type="motorcycle_motorcycle" depart="390.00" departLane="best" from="361899471#0" to="369963805#0"/>
	<trip id="motorcycle196" type="motorcycle_motorcycle" depart="392.00" departLane="best" from="29855261#4" to="-29895934#0"/>
	<trip id="motorcycle197" type="motorcycle_motorcycle" depart="394.00" departLane="best" from="29034278#1" to="29895409#8"/>
	<trip id="motorcycle198" type="motorcycle_motorcycle" depart="396.00" departLane="best" from="-29854561#1" to="29896202#1"/>
	<trip id="motorcycle199" type="motorcycle_motorcycle" depart="398.00" departLane="best" from="932761289#2" to="29895891"/>
	<trip id="motorcycle200" type="motorcycle_motorcycle" depart="400.00" departLane="best" from="921989964" to="29895812#3"/>
</routes>
