<routes xmlns:xsi="http://www.w3.org/2001/XMLSchema-instance" xsi:noNamespaceSchemaLocation="http://sumo.dlr.de/xsd/routes_file.xsd">
	<vType id="veh_passenger" vClass="passenger"/>
	<trip id="veh0" type="veh_passenger" depart="0.00" departLane="best" from="29875742" to="-29873850"/>
	<trip id="veh1" type="veh_passenger" depart="2.50" departLane="best" from="-29033073" to="370138488"/>
	<trip id="veh2" type="veh_passenger" depart="5.00" departLane="best" from="-370138511" to="-1273580262#1"/>
	<trip id="veh3" type="veh_passenger" depart="7.50" departLane="best" from="371051972" to="933225174"/>
	<trip id="veh4" type="veh_passenger" depart="10.00" departLane="best" from="29870771#0" to="29031819#16"/>
	<trip id="veh5" type="veh_passenger" depart="12.50" departLane="best" from="-225880671#1" to="370138622#0"/>
	<trip id="veh6" type="veh_passenger" depart="15.00" departLane="best" from="757101446#6" to="1190158549#2"/>
	<trip id="veh7" type="veh_passenger" depart="17.50" departLane="best" from="-29872391#3" to="933225166#3"/>
	<trip id="veh8" type="veh_passenger" depart="20.00" departLane="best" from="921989993" to="29034093"/>
	<trip id="veh9" type="veh_passenger" depart="22.50" departLane="best" from="29032965#1" to="1273243125#0"/>
	<trip id="veh10" type="veh_passenger" depart="25.00" departLane="best" from="-29861240" to="29032037#1"/>
	<trip id="veh11" type="veh_passenger" depart="27.50" departLane="best" from="-29859173#0" to="-29032902#1"/>
	<trip id="veh12" type="veh_passenger" depart="30.00" departLane="best" from="933269857#3" to="918131659#18"/>
	<trip id="veh13" type="veh_passenger" depart="32.50" departLane="best" from="-29855261#1" to="370138516#0"/>
	<trip id="veh14" type="veh_passenger" depart="35.00" departLane="best" from="29870918#7" to="-29031857#2"/>
	<trip id="veh15" type="veh_passenger" depart="37.50" departLane="best" from="-371051977" to="-29032902#15"/>
	<trip id="veh16" type="veh_passenger" depart="40.00" departLane="best" from="-29868321" to="-933228445"/>
	<trip id="veh17" type="veh_passenger" depart="42.50" departLane="best" from="757102098#2" to="29034080#1"/>
	<trip id="veh18" type="veh_passenger" depart="45.00" departLane="best" from="-29858436#2" to="1190158549#0"/>
	<trip id="veh19" type="veh_passenger" depart="47.50" departLane="best" from="370809939#1" to="-29917315#5"/>
	<trip id="veh20" type="veh_passenger" depart="50.00" departLane="best" from="920074706" to="370138426#0"/>
	<trip id="veh21" type="veh_passenger" depart="52.50" departLane="best" from="-370138522#0" to="-29031855#4"/>
	<trip id="veh22" type="veh_passenger" depart="55.00" departLane="best" from="-29032963#2" to="29034086#4"/>
	<trip id="veh23" type="veh_passenger" depart="57.50" departLane="best" from="1132717781#1" to="-818305720"/>
	<trip id="veh24" type="veh_passenger" depart="60.00" departLane="best" from="-29873278" to="-29034086#3"/>
	<trip id="veh25" type="veh_passenger" depart="62.50" departLane="best" from="370138578#0" to="-370138433#0"/>
	<trip id="veh26" type="veh_passenger" depart="65.00" departLane="best" from="-371052008#3" to="1310948449"/>
	<trip id="veh27" type="veh_passenger" depart="67.50" departLane="best" from="29859280#0" to="370138648#3"/>
	<trip id="veh28" type="veh_passenger" depart="70.00" departLane="best" from="-29867729#1" to="-1273580262#1"/>
	<trip id="veh29" type="veh_passenger" depart="72.50" departLane="best" from="29032902#0" to="370138433#4"/>
	<trip id="veh30" type="veh_passenger" depart="75.00" departLane="best" from="933216704#22" to="933225173#5"/>
	<trip id="veh31" type="veh_passenger" depart="77.50" departLane="best" from="369798490#2" to="29034117#1"/>
	<trip id="veh32" type="veh_passenger" depart="80.00" departLane="best" from="934172671#5" to="-933225174"/>
	<trip id="veh33" type="veh_passenger" depart="82.50" departLane="best" from="757101447#0" to="-370138550"/>
	<trip id="veh34" type="veh_passenger" depart="85.00" departLane="best" from="-29862015" to="933225173#8"/>
	<trip id="veh35" type="veh_passenger" depart="87.50" departLane="best" from="757102090#2" to="-29032902#7"/>
	<trip id="veh36" type="veh_passenger" depart="90.00" departLane="best" from="-310184011#1" to="934172718"/>
	<trip id="veh37" type="veh_passenger" depart="92.50" departLane="best" from="-29869699#0" to="29034086#4"/>
	<trip id="veh38" type="veh_passenger" depart="95.00" departLane="best" from="-1273243125#0" to="-29031869#0"/>
	<trip id="veh39" type="veh_passenger" depart="97.50" departLane="best" from="-29031970#5" to="29034079#1"/>
	<trip id="veh40" type="veh_passenger" depart="100.00" departLane="best" from="29873134#9" to="361899452#4"/>
	<trip id="veh41" type="veh_passenger" depart="102.50" departLane="best" from="29032077#1" to="29031819#15"/>
	<trip id="veh42" type="veh_passenger" depart="105.00" departLane="best" from="-370138677#0" to="1310948449"/>
	<trip id="veh43" type="veh_passenger" depart="107.50" departLane="best" from="29853990#3" to="-29031845#6"/>
	<trip id="veh44" type="veh_passenger" depart="110.00" departLane="best" from="-29861385#2" to="29034079#6"/>
	<trip id="veh45" type="veh_passenger" depart="112.50" departLane="best" from="-29033330#1" to="29031891#0"/>
	<trip id="veh46" type="veh_passenger" depart="115.00" departLane="best" from="-29853990#7" to="818305718"/>
	<trip id="veh47" type="veh_passenger" depart="117.50" departLane="best" from="29873217" to="-29032983#2"/>
	<trip id="veh48" type="veh_passenger" depart="120.00" departLane="best" from="29857886#0" to="-29033034#1"/>
	<trip id="veh49" type="veh_passenger" depart="122.50" departLane="best" from="-29031934#2" to="-370138493"/>
	<trip id="veh50" type="veh_passenger" depart="125.00" departLane="best" from="-370143465" to="-371065182#1"/>
	<trip id="veh51" type="veh_passenger" depart="127.50" departLane="best" from="-29856276" to="-370138425#2"/>
	<trip id="veh52" type="veh_passenger" depart="130.00" departLane="best" from="1289137748#2" to="29031934#4"/>
	<trip id="veh53" type="veh_passenger" depart="132.50" departLane="best" from="310184011#7" to="29032016"/>
	<trip id="veh54" type="veh_passenger" depart="135.00" departLane="best" from="-28938925#3" to="370138574"/>
	<trip id="veh55" type="veh_passenger" depart="137.50" departLane="best" from="-370143478#1" to="29031894"/>
	<trip id="veh56" type="veh_passenger" depart="140.00" departLane="best" from="-918680936#1" to="-370138471"/>
	<trip id="veh57" type="veh_passenger" depart="142.50" departLane="best" from="361899468#4" to="370138648#0"/>
	<trip id="veh58" type="veh_passenger" depart="145.00" departLane="best" from="310184011#4" to="1190158549#12"/>
	<trip id="veh59" type="veh_passenger" depart="147.50" departLane="best" from="-369798591#0" to="28851514#2"/>
	<trip id="veh60" type="veh_passenger" depart="150.00" departLane="best" from="370138644#3" to="1316335748"/>
	<trip id="veh61" type="veh_passenger" depart="152.50" departLane="best" from="-370809885#0" to="-370138534"/>
	<trip id="veh62" type="veh_passenger" depart="155.00" departLane="best" from="-29873054#0" to="-29031819#8"/>
	<trip id="veh63" type="veh_passenger" depart="157.50" departLane="best" from="29853818#2" to="-29031997#0"/>
	<trip id="veh64" type="veh_passenger" depart="160.00" departLane="best" from="-361899476" to="933269834"/>
	<trip id="veh65" type="veh_passenger" depart="162.50" departLane="best" from="-29859106#0" to="-29034022#0"/>
	<trip id="veh66" type="veh_passenger" depart="165.00" departLane="best" from="-29034427#3" to="-29033106"/>
	<trip id="veh67" type="veh_passenger" depart="167.50" departLane="best" from="-369798490#6" to="-29031920"/>
	<trip id="veh68" type="veh_passenger" depart="170.00" departLane="best" from="-29860618" to="-29033102"/>
	<trip id="veh69" type="veh_passenger" depart="172.50" departLane="best" from="371051987#10" to="-29034025"/>
	<trip id="veh70" type="veh_passenger" depart="175.00" departLane="best" from="-29719803#6" to="29031889#1"/>
	<trip id="veh71" type="veh_passenger" depart="177.50" departLane="best" from="933255406" to="-29031819#16"/>
	<trip id="veh72" type="veh_passenger" depart="180.00" departLane="best" from="-371051958" to="29034085#6"/>
	<trip id="veh73" type="veh_passenger" depart="182.50" departLane="best" from="-370138521" to="29032902#14"/>
	<trip id="veh74" type="veh_passenger" depart="185.00" departLane="best" from="-370138543" to="29034102"/>
	<trip id="veh75" type="veh_passenger" depart="187.50" departLane="best" from="29031970#4" to="-29917315#5"/>
	<trip id="veh76" type="veh_passenger" depart="190.00" departLane="best" from="-921989967" to="934186391#1"/>
	<trip id="veh77" type="veh_passenger" depart="192.50" departLane="best" from="29867919#1" to="29031997#3"/>
	<trip id="veh78" type="veh_passenger" depart="195.00" departLane="best" from="932366335" to="1190158549#3"/>
	<trip id="veh79" type="veh_passenger" depart="197.50" departLane="best" from="370809901#1" to="-29031819#16"/>
	<trip id="veh80" type="veh_passenger" depart="200.00" departLane="best" from="-933239117#0" to="28851514#5"/>
	<trip id="veh81" type="veh_passenger" depart="202.50" departLane="best" from="29870626#0" to="-370138646#0"/>
	<trip id="veh82" type="veh_passenger" depart="205.00" departLane="best" from="-29871571" to="370138564"/>
	<trip id="veh83" type="veh_passenger" depart="207.50" departLane="best" from="933239109#1" to="-370138439"/>
	<trip id="veh84" type="veh_passenger" depart="210.00" departLane="best" from="-922051264" to="29031857#0"/>
	<trip id="veh85" type="veh_passenger" depart="212.50" departLane="best" from="-29870789" to="-370138425#4"/>
	<trip id="veh86" type="veh_passenger" depart="215.00" departLane="best" from="29858436#1" to="933225165#3"/>
	<trip id="veh87" type="veh_passenger" depart="217.50" departLane="best" from="-29034328#15" to="-370138648#2"/>
	<trip id="veh88" type="veh_passenger" depart="220.00" departLane="best" from="-29036122#3" to="1190158549#0"/>
	<trip id="veh89" type="veh_passenger" depart="222.50" departLane="best" from="921930226#18" to="29031819#9"/>
	<trip id="veh90" type="veh_passenger" depart="225.00" departLane="best" from="-310184011#3" to="29033034#6"/>
	<trip id="veh91" type="veh_passenger" depart="227.50" departLane="best" from="371051983" to="1289836726#20"/>
	<trip id="veh92" type="veh_passenger" depart="230.00" departLane="best" from="757109369#1" to="29032019"/>
	<trip id="veh93" type="veh_passenger" depart="232.50" departLane="best" from="1043419603#2" to="29031917#0"/>
	<trip id="veh94" type="veh_passenger" depart="235.00" departLane="best" from="29034471#2" to="934186395"/>
	<trip id="veh95" type="veh_passenger" depart="237.50" departLane="best" from="29034314#4" to="-29031872#0"/>
	<trip id="veh96" type="veh_passenger" depart="240.00" departLane="best" from="921989985" to="29034138"/>
	<trip id="veh97" type="veh_passenger" depart="242.50" departLane="best" from="369798419#3" to="370138426#0"/>
	<trip id="veh98" type="veh_passenger" depart="245.00" departLane="best" from="371065188#0" to="-370138425#1"/>
	<trip id="veh99" type="veh_passenger" depart="247.50" departLane="best" from="933228463" to="29032902#2"/>
	<trip id="veh100" type="veh_passenger" depart="250.00" departLane="best" from="920074698#4" to="-29031934#4"/>
	<trip id="veh101" type="veh_passenger" depart="252.50" departLane="best" from="29858328#0" to="29032016"/>
	<trip id="veh102" type="veh_passenger" depart="255.00" departLane="best" from="28938925#0" to="818305717"/>
	<trip id="veh103" type="veh_passenger" depart="257.50" departLane="best" from="1190158549#10" to="-29031872#3"/>
	<trip id="veh104" type="veh_passenger" depart="260.00" departLane="best" from="-29855261#7" to="1273580262#0"/>
	<trip id="veh105" type="veh_passenger" depart="262.50" departLane="best" from="310184011#5" to="1273243125#0"/>
	<trip id="veh106" type="veh_passenger" depart="265.00" departLane="best" from="29867951#0" to="-29032963#7"/>
	<trip id="veh107" type="veh_passenger" depart="267.50" departLane="best" from="29858987#8" to="757107600#7"/>
	<trip id="veh108" type="veh_passenger" depart="270.00" departLane="best" from="369798419#3" to="-370138488"/>
	<trip id="veh109" type="veh_passenger" depart="272.50" departLane="best" from="920074698#6" to="757107604"/>
	<trip id="veh110" type="veh_passenger" depart="275.00" departLane="best" from="-371051998#1" to="370138516#3"/>
	<trip id="veh111" type="veh_passenger" depart="277.50" departLane="best" from="310184010#1" to="-29034117#1"/>
	<trip id="veh112" type="veh_passenger" depart="280.00" departLane="best" from="29036059#8" to="370138454"/>
	<trip id="veh113" type="veh_passenger" depart="282.50" departLane="best" from="370809885#9" to="818305717"/>
	<trip id="veh114" type="veh_passenger" depart="285.00" departLane="best" from="29857761#0" to="29031895#2"/>
	<trip id="veh115" type="veh_passenger" depart="287.50" departLane="best" from="29719836#1" to="933228444#4"/>
	<trip id="veh116" type="veh_passenger" depart="290.00" departLane="best" from="-29873048#3" to="29031889#2"/>
	<trip id="veh117" type="veh_passenger" depart="292.50" departLane="best" from="370138497" to="-933269834"/>
	<trip id="veh118" type="veh_passenger" depart="295.00" departLane="best" from="-371065195#1" to="-29033045"/>
	<trip id="veh119" type="veh_passenger" depart="297.50" departLane="best" from="29873138#8" to="-29034135#0"/>
	<trip id="veh120" type="veh_passenger" depart="300.00" departLane="best" from="-29862870#1" to="29033034#0"/>
	<trip id="veh121" type="veh_passenger" depart="302.50" departLane="best" from="-29859264#7" to="757107600#11"/>
	<trip id="veh122" type="veh_passenger" depart="305.00" departLane="best" from="29873048#1" to="757107605"/>
	<trip id="veh123" type="veh_passenger" depart="307.50" departLane="best" from="29034299" to="-818305720"/>
	<trip id="veh124" type="veh_passenger" depart="310.00" departLane="best" from="-29033330#9" to="-370138481"/>
	<trip id="veh125" type="veh_passenger" depart="312.50" departLane="best" from="29873159" to="370138618"/>
	<trip id="veh126" type="veh_passenger" depart="315.00" departLane="best" from="28938915#3" to="757107600#13"/>
	<trip id="veh127" type="veh_passenger" depart="317.50" departLane="best" from="757102089#7" to="29031819#14"/>
	<trip id="veh128" type="veh_passenger" depart="320.00" departLane="best" from="922051294#0" to="934172718"/>
	<trip id="veh129" type="veh_passenger" depart="322.50" departLane="best" from="-933239121" to="-933239094"/>
	<trip id="veh130" type="veh_passenger" depart="325.00" departLane="best" from="-29034505#0" to="-1310948448#1"/>
	<trip id="veh131" type="veh_passenger" depart="327.50" departLane="best" from="-29857761#2" to="-371065183#1"/>
	<trip id="veh132" type="veh_passenger" depart="330.00" departLane="best" from="370138519" to="29031608#4"/>
	<trip id="veh133" type="veh_passenger" depart="332.50" departLane="best" from="29034299" to="1316335748"/>
	<trip id="veh134" type="veh_passenger" depart="335.00" departLane="best" from="370809938#0" to="-29031878#1"/>
	<trip id="veh135" type="veh_passenger" depart="337.50" departLane="best" from="371051987#15" to="29031845#6"/>
	<trip id="veh136" type="veh_passenger" depart="340.00" departLane="best" from="918121318#1" to="-370138433#3"/>
	<trip id="veh137" type="veh_passenger" depart="342.50" departLane="best" from="29868644#1" to="-29031891#2"/>
	<trip id="veh138" type="veh_passenger" depart="345.00" departLane="best" from="29031926#9" to="28851514#10"/>
	<trip id="veh139" type="veh_passenger" depart="347.50" departLane="best" from="-370809919" to="1190158549#12"/>
	<trip id="veh140" type="veh_passenger" depart="350.00" departLane="best" from="-371051987#4" to="933225173#8"/>
	<trip id="veh141" type="veh_passenger" depart="352.50" departLane="best" from="371051987#15" to="-29031877"/>
	<trip id="veh142" type="veh_passenger" depart="355.00" departLane="best" from="918680932" to="-29031970#8"/>
	<trip id="veh143" type="veh_passenger" depart="357.50" departLane="best" from="310184010#0" to="-370138516#3"/>
	<trip id="veh144" type="veh_passenger" depart="360.00" departLane="best" from="-371065189#0" to="933228467"/>
	<trip id="veh145" type="veh_passenger" depart="362.50" departLane="best" from="29871534#0" to="29031891#0"/>
	<trip id="veh146" type="veh_passenger" depart="365.00" departLane="best" from="-933239118" to="-933228465"/>
	<trip id="veh147" type="veh_passenger" depart="367.50" departLane="best" from="29871199" to="-370138572"/>
	<trip id="veh148" type="veh_passenger" depart="370.00" departLane="best" from="-370138620#0" to="29917315#1"/>
	<trip id="veh149" type="veh_passenger" depart="372.50" departLane="best" from="371065198#4" to="-29031845#15"/>
	<trip id="veh150" type="veh_passenger" depart="375.00" departLane="best" from="-29873051#0" to="-370138433#1"/>
	<trip id="veh151" type="veh_passenger" depart="377.50" departLane="best" from="1120236770#0" to="370138488"/>
	<trip id="veh152" type="veh_passenger" depart="380.00" departLane="best" from="29860975#0" to="-933269837"/>
	<trip id="veh153" type="veh_passenger" depart="382.50" departLane="best" from="29036066#4" to="361899452#4"/>
	<trip id="veh154" type="veh_passenger" depart="385.00" departLane="best" from="371065197#7" to="370138516#0"/>
	<trip id="veh155" type="veh_passenger" depart="387.50" departLane="best" from="29853953" to="29031889#0"/>
	<trip id="veh156" type="veh_passenger" depart="390.00" departLane="best" from="-29032965#0" to="933228444#5"/>
	<trip id="veh157" type="veh_passenger" depart="392.50" departLane="best" from="370138673#2" to="29031858#1"/>
	<trip id="veh158" type="veh_passenger" depart="395.00" departLane="best" from="370143458" to="370138433#3"/>
	<trip id="veh159" type="veh_passenger" depart="397.50" departLane="best" from="1305692345" to="29031997#3"/>
	<trip id="veh160" type="veh_passenger" depart="400.00" departLane="best" from="1059803886#1" to="-29034081#1"/>
	<trip id="veh161" type="veh_passenger" depart="402.50" departLane="best" from="29869816" to="29034086#1"/>
	<trip id="veh162" type="veh_passenger" depart="405.00" departLane="best" from="-1289248704#1" to="29031970#7"/>
	<trip id="veh163" type="veh_passenger" depart="407.50" departLane="best" from="-371051987#6" to="29032016"/>
	<trip id="veh164" type="veh_passenger" depart="410.00" departLane="best" from="-1214774692" to="29031920"/>
	<trip id="veh165" type="veh_passenger" depart="412.50" departLane="best" from="29032902#7" to="-29032983#2"/>
	<trip id="veh166" type="veh_passenger" depart="415.00" departLane="best" from="29034328#8" to="29034145"/>
	<trip id="veh167" type="veh_passenger" depart="417.50" departLane="best" from="29866949#0" to="29034134#2"/>
	<trip id="veh168" type="veh_passenger" depart="420.00" departLane="best" from="-29858328#1" to="-29031872#4"/>
	<trip id="veh169" type="veh_passenger" depart="422.50" departLane="best" from="369798490#0" to="933239093#1"/>
	<trip id="veh170" type="veh_passenger" depart="425.00" departLane="best" from="801283745#3" to="-818305719"/>
	<trip id="veh171" type="veh_passenger" depart="427.50" departLane="best" from="1305692345" to="29032902#14"/>
	<trip id="veh172" type="veh_passenger" depart="430.00" departLane="best" from="29853818#6" to="29031819#9"/>
	<trip id="veh173" type="veh_passenger" depart="432.50" departLane="best" from="1059803888" to="-29032968#4"/>
	<trip id="veh174" type="veh_passenger" depart="435.00" departLane="best" from="-934172688" to="918494925#21"/>
	<trip id="veh175" type="veh_passenger" depart="437.50" departLane="best" from="29031926#9" to="370138618"/>
	<trip id="veh176" type="veh_passenger" depart="440.00" departLane="best" from="-370809881#5" to="-818305721"/>
	<trip id="veh177" type="veh_passenger" depart="442.50" departLane="best" from="-29031934#2" to="-370138481"/>
	<trip id="veh178" type="veh_passenger" depart="445.00" departLane="best" from="29861194#0" to="-370138425#4"/>
	<trip id="veh179" type="veh_passenger" depart="447.50" departLane="best" from="-29873048#4" to="1316335744"/>
	<trip id="veh180" type="veh_passenger" depart="450.00" departLane="best" from="932317471" to="818305718"/>
	<trip id="veh181" type="veh_passenger" depart="452.50" departLane="best" from="-921930198" to="29034123#0"/>
	<trip id="veh182" type="veh_passenger" depart="455.00" departLane="best" from="370809938#1" to="370138622#0"/>
	<trip id="veh183" type="veh_passenger" depart="457.50" departLane="best" from="933230248" to="29032037#4"/>
	<trip id="veh184" type="veh_passenger" depart="460.00" departLane="best" from="371065183#0" to="370138514"/>
	<trip id="veh185" type="veh_passenger" depart="462.50" departLane="best" from="369798553" to="918494925#21"/>
	<trip id="veh186" type="veh_passenger" depart="465.00" departLane="best" from="29033330#2" to="29031614#4"/>
	<trip id="veh187" type="veh_passenger" depart="467.50" departLane="best" from="29034273#1" to="370138654#2"/>
	<trip id="veh188" type="veh_passenger" depart="470.00" departLane="best" from="29861535#2" to="-370138601"/>
	<trip id="veh189" type="veh_passenger" depart="472.50" departLane="best" from="-29869498#3" to="933225166#8"/>
	<trip id="veh190" type="veh_passenger" depart="475.00" departLane="best" from="370809918#0" to="-29034025"/>
	<trip id="veh191" type="veh_passenger" depart="477.50" departLane="best" from="-29034387#4" to="-29034086#3"/>
	<trip id="veh192" type="veh_passenger" depart="480.00" departLane="best" from="-29867287#4" to="-29034128#0"/>
	<trip id="veh193" type="veh_passenger" depart="482.50" departLane="best" from="-933269858" to="29033019"/>
	<trip id="veh194" type="veh_passenger" depart="485.00" departLane="best" from="-29858987#5" to="933228444#4"/>
	<trip id="veh195" type="veh_passenger" depart="487.50" departLane="best" from="-933216693" to="370138655#0"/>
	<trip id="veh196" type="veh_passenger" depart="490.00" departLane="best" from="-1043437821" to="818305720"/>
	<trip id="veh197" type="veh_passenger" depart="492.50" departLane="best" from="29034307" to="-29034135#0"/>
	<trip id="veh198" type="veh_passenger" depart="495.00" departLane="best" from="29854379#1" to="29034081#1"/>
	<trip id="veh199" type="veh_passenger" depart="497.50" departLane="best" from="-29861535#1" to="371065192#3"/>
	<trip id="veh200" type="veh_passenger" depart="500.00" departLane="best" from="29032968#6" to="757107600#8"/>
	<trip id="veh201" type="veh_passenger" depart="502.50" departLane="best" from="29032902#8" to="-1273580263"/>
	<trip id="veh202" type="veh_passenger" depart="505.00" departLane="best" from="29036059#3" to="-29031855#0"/>
	<trip id="veh203" type="veh_passenger" depart="507.50" departLane="best" from="29033034#4" to="-934186394"/>
	<trip id="veh204" type="veh_passenger" depart="510.00" departLane="best" from="-933269853#1" to="370138511"/>
	<trip id="veh205" type="veh_passenger" depart="512.50" departLane="best" from="-1287266686" to="29034085#9"/>
	<trip id="veh206" type="veh_passenger" depart="515.00" departLane="best" from="-371052006#0" to="29034079#2"/>
	<trip id="veh207" type="veh_passenger" depart="517.50" departLane="best" from="-29867224#0" to="-933228467"/>
	<trip id="veh208" type="veh_passenger" depart="520.00" departLane="best" from="1195562746#3" to="29034085#1"/>
	<trip id="veh209" type="veh_passenger" depart="522.50" departLane="best" from="-29873054#5" to="29034086#3"/>
	<trip id="veh210" type="veh_passenger" depart="525.00" departLane="best" from="-29034387#6" to="918494925#19"/>
	<trip id="veh211" type="veh_passenger" depart="527.50" departLane="best" from="-921989937#0" to="29031845#16"/>
	<trip id="veh212" type="veh_passenger" depart="530.00" departLane="best" from="-225880669#1" to="-934186394"/>
	<trip id="veh213" type="veh_passenger" depart="532.50" departLane="best" from="29862870#0" to="29031978#0"/>
	<trip id="veh214" type="veh_passenger" depart="535.00" departLane="best" from="-29034391#4" to="29032902#9"/>
	<trip id="veh215" type="veh_passenger" depart="537.50" departLane="best" from="-933212336#0" to="933225165#0"/>
	<trip id="veh216" type="veh_passenger" depart="540.00" departLane="best" from="932366349" to="-29034128#0"/>
	<trip id="veh217" type="veh_passenger" depart="542.50" departLane="best" from="29032046#0" to="29031861"/>
	<trip id="veh218" type="veh_passenger" depart="545.00" departLane="best" from="-29873157#3" to="933225173#6"/>
	<trip id="veh219" type="veh_passenger" depart="547.50" departLane="best" from="-29034201#2" to="918494925#20"/>
	<trip id="veh220" type="veh_passenger" depart="550.00" departLane="best" from="934172671#4" to="-29034079#3"/>
	<trip id="veh221" type="veh_passenger" depart="552.50" departLane="best" from="370138486" to="-29032968#15"/>
	<trip id="veh222" type="veh_passenger" depart="555.00" departLane="best" from="-369798419#4" to="370138481"/>
	<trip id="veh223" type="veh_passenger" depart="557.50" departLane="best" from="29862359#3" to="-29031845#9"/>
	<trip id="veh224" type="veh_passenger" depart="560.00" departLane="best" from="29878349" to="-29917315#3"/>
	<trip id="veh225" type="veh_passenger" depart="562.50" departLane="best" from="-29033330#0" to="918494925#20"/>
	<trip id="veh226" type="veh_passenger" depart="565.00" departLane="best" from="-920074689" to="370138636#0"/>
	<trip id="veh227" type="veh_passenger" depart="567.50" departLane="best" from="-29873051#1" to="-370138643#0"/>
	<trip id="veh228" type="veh_passenger" depart="570.00" departLane="best" from="-921989989" to="29032990"/>
	<trip id="veh229" type="veh_passenger" depart="572.50" departLane="best" from="-29853840#0" to="370138433#0"/>
	<trip id="veh230" type="veh_passenger" depart="575.00" departLane="best" from="918314351#0" to="-29031845#3"/>
	<trip id="veh231" type="veh_passenger" depart="577.50" departLane="best" from="-371051957#2" to="757107598#1-AddedOffRampEdge"/>
	<trip id="veh232" type="veh_passenger" depart="580.00" departLane="best" from="-1120236770#0" to="29031901#1"/>
	<trip id="veh233" type="veh_passenger" depart="582.50" departLane="best" from="933225161#0" to="-370138602#2"/>
	<trip id="veh234" type="veh_passenger" depart="585.00" departLane="best" from="29866635#6" to="29031901#1"/>
	<trip id="veh235" type="veh_passenger" depart="587.50" departLane="best" from="29861964#0" to="757107600#17"/>
	<trip id="veh236" type="veh_passenger" depart="590.00" departLane="best" from="-29873048#4" to="-29031872#4"/>
	<trip id="veh237" type="veh_passenger" depart="592.50" departLane="best" from="-1195562746#4" to="-29032041"/>
	<trip id="veh238" type="veh_passenger" depart="595.00" departLane="best" from="225880673#1" to="29032968#13"/>
	<trip id="veh239" type="veh_passenger" depart="597.50" departLane="best" from="29855102#0" to="370138648#0"/>
	<trip id="veh240" type="veh_passenger" depart="600.00" departLane="best" from="369798591#1" to="-29034086#1"/>
	<trip id="veh241" type="veh_passenger" depart="602.50" departLane="best" from="29867636#1" to="29032983#1"/>
	<trip id="veh242" type="veh_passenger" depart="605.00" departLane="best" from="-933216704#39" to="-29031917#0"/>
	<trip id="veh243" type="veh_passenger" depart="607.50" departLane="best" from="29857373#6" to="-29917315#4"/>
	<trip id="veh244" type="veh_passenger" depart="610.00" departLane="best" from="1059803886#1" to="29032963#0"/>
	<trip id="veh245" type="veh_passenger" depart="612.50" departLane="best" from="-370143461" to="-29034102"/>
	<trip id="veh246" type="veh_passenger" depart="615.00" departLane="best" from="370809961#0" to="-29031970#8"/>
	<trip id="veh247" type="veh_passenger" depart="617.50" departLane="best" from="1120097795#1" to="-29034086#0"/>
	<trip id="veh248" type="veh_passenger" depart="620.00" departLane="best" from="757102098#1" to="29032902#1"/>
	<trip id="veh249" type="veh_passenger" depart="622.50" departLane="best" from="29868441#2" to="29032902#1"/>
	<trip id="veh250" type="veh_passenger" depart="625.00" departLane="best" from="818305724#1" to="-29033106"/>
	<trip id="veh251" type="veh_passenger" depart="627.50" departLane="best" from="-29873281#0" to="370138572"/>
	<trip id="veh252" type="veh_passenger" depart="630.00" departLane="best" from="29867483#1" to="-370138514"/>
	<trip id="veh253" type="veh_passenger" depart="632.50" departLane="best" from="933239106#1" to="29032037#4"/>
	<trip id="veh254" type="veh_passenger" depart="635.00" departLane="best" from="371065197#8" to="-29031872#2"/>
	<trip id="veh255" type="veh_passenger" depart="637.50" departLane="best" from="-29036122#5" to="-29032990"/>
	<trip id="veh256" type="veh_passenger" depart="640.00" departLane="best" from="933255406" to="1273580262#0"/>
	<trip id="veh257" type="veh_passenger" depart="642.50" departLane="best" from="29034427#1" to="818305719"/>
	<trip id="veh258" type="veh_passenger" depart="645.00" departLane="best" from="-310184012#3" to="-29031917#1"/>
	<trip id="veh259" type="veh_passenger" depart="647.50" departLane="best" from="1214772052#0" to="1287048364#2"/>
	<trip id="veh260" type="veh_passenger" depart="650.00" departLane="best" from="-920074689" to="-29031878#0"/>
	<trip id="veh261" type="veh_passenger" depart="652.50" departLane="best" from="757109374#3" to="29031889#3"/>
	<trip id="veh262" type="veh_passenger" depart="655.00" departLane="best" from="370809957#0" to="-370138534"/>
	<trip id="veh263" type="veh_passenger" depart="657.50" departLane="best" from="371051998#1" to="-29031858#1"/>
	<trip id="veh264" type="veh_passenger" depart="660.00" departLane="best" from="370143485#0" to="918131659#18"/>
	<trip id="veh265" type="veh_passenger" depart="662.50" departLane="best" from="-310184011#7" to="-29032005#0"/>
	<trip id="veh266" type="veh_passenger" depart="665.00" departLane="best" from="933216704#23" to="29031610#0"/>
	<trip id="veh267" type="veh_passenger" depart="667.50" departLane="best" from="-29033330#6" to="-29032902#7"/>
	<trip id="veh268" type="veh_passenger" depart="670.00" departLane="best" from="1112211230#0" to="29031891#2"/>