<?xml version="1.0" encoding="UTF-8"?>

<!-- generated on 2024-12-11 12:26:53.894253 by osmWebWizard.py v1_21_0+0000-d7b3b481c43
<configuration>
    <net-file value="C:\Users\Kisha\Sumo\2024-12-11-11-46-08\osm.net.xml.gz"/>
    <output-trip-file value="C:\Users\Kisha\Sumo\2024-12-11-11-46-08\osm.bus.trips.xml"/>
    <route-file value="C:\Users\Kisha\Sumo\2024-12-11-11-46-08\osm.bus.rou.xml"/>
    <prefix value="bus"/>
    <trip-attributes value="departLane=&quot;best&quot;"/>
    <fringe-start-attributes value="departSpeed=&quot;max&quot;"/>
    <vehicle-class value="bus"/>
    <fringe-factor value="2"/>
    <vclass value="bus"/>
    <via-edge-types value="highway.motorway,highway.motorway_link,highway.trunk_link,highway.primary_link,highway.secondary_link,highway.tertiary_link"/>
    <min-distance value="600.0"/>
    <min-distance.fringe value="10.0"/>
    <remove-loops value="True"/>
    <validate value="True"/>
    <insertion-density value="4.0"/>
</configuration>
-->

<!-- generated on 2024-12-11 12:07:32 by Eclipse SUMO duarouter Version 1.21.0
<duarouterConfiguration xmlns:xsi="http://www.w3.org/2001/XMLSchema-instance" xsi:noNamespaceSchemaLocation="http://sumo.dlr.de/xsd/duarouterConfiguration.xsd">

    <input>
        <net-file value="C:\Users\Kisha\Sumo\2024-12-11-11-46-08\osm.net.xml.gz"/>
        <route-files value="C:\Users\Kisha\Sumo\2024-12-11-11-46-08\osm.bus.trips.xml"/>
    </input>

    <output>
        <output-file value="C:\Users\Kisha\Sumo\2024-12-11-11-46-08\osm.bus.trips.xml.tmp"/>
        <alternatives-output value="NUL"/>
        <write-trips value="true"/>
    </output>

    <processing>
        <remove-loops value="true"/>
    </processing>

    <time>
        <begin value="0.0"/>
        <end value="3600.0"/>
    </time>

    <report>
        <no-warnings value="true"/>
        <ignore-errors value="true"/>
        <no-step-log value="true"/>
    </report>

</duarouterConfiguration>
-->

<routes xmlns:xsi="http://www.w3.org/2001/XMLSchema-instance" xsi:noNamespaceSchemaLocation="http://sumo.dlr.de/xsd/routes_file.xsd">
    <vType id="bus_bus" vClass="bus"/>
    <trip id="bus0" type="bus_bus" depart="0.00" departLane="best" from="-370155163" to="-28937260#1"/>
    <trip id="bus1" type="bus_bus" depart="0.17" departLane="best" from="371299927#0" to="370823647"/>
    <trip id="bus2" type="bus_bus" depart="0.34" departLane="best" from="371063801#2" to="370678325#4"/>
    <trip id="bus3" type="bus_bus" depart="0.52" departLane="best" from="921663685#15" to="-29714007#0"/>
    <trip id="bus4" type="bus_bus" depart="0.69" departLane="best" from="930910609#2" to="-29030838#22"/>
    <trip id="bus5" type="bus_bus" depart="0.86" departLane="best" from="-370818027#8" to="29030799#26"/>
    <trip id="bus6" type="bus_bus" depart="1.03" departLane="best" from="-28937395#8" to="370694576#0"/>
    <trip id="bus7" type="bus_bus" depart="1.21" departLane="best" from="-370528630#5" to="29165543"/>
    <trip id="bus8" type="bus_bus" depart="1.38" departLane="best" from="370823469#10" to="29892913"/>
    <trip id="bus9" type="bus_bus" depart="1.55" departLane="best" from="856537379#1" to="-1126738057#2"/>
    <trip id="bus10" type="bus_bus" depart="1.72" departLane="best" from="769456108#3" to="370817804#0"/>
    <trip id="bus11" type="bus_bus" depart="1.90" departLane="best" from="915473833#0" to="-370155142#0"/>
    <trip id="bus12" type="bus_bus" depart="2.07" departLane="best" from="931269353" to="-915060954#10"/>
    <trip id="bus13" type="bus_bus" depart="2.24" departLane="best" from="-29859264#1" to="29873278"/>
    <trip id="bus14" type="bus_bus" depart="2.41" departLane="best" from="-915473822#0" to="310054606#4"/>
    <trip id="bus15" type="bus_bus" depart="2.58" departLane="best" from="843200817#1" to="-370849153#0"/>
    <trip id="bus16" type="bus_bus" depart="2.76" departLane="best" from="29077851#10" to="932916418#4"/>
    <trip id="bus17" type="bus_bus" depart="2.93" departLane="best" from="-921925920#1" to="-29318003"/>
    <trip id="bus18" type="bus_bus" depart="3.10" departLane="best" from="-914638112" to="369963704#0"/>
    <trip id="bus19" type="bus_bus" depart="3.27" departLane="best" from="918112200#12" to="29873300#2"/>
    <trip id="bus20" type="bus_bus" depart="3.45" departLane="best" from="370818175" to="-29058244#1"/>
    <trip id="bus21" type="bus_bus" depart="3.62" departLane="best" from="370843993" to="-371318527#4"/>
    <trip id="bus22" type="bus_bus" depart="3.79" departLane="best" from="-29698614" to="-370844270#0"/>
    <trip id="bus23" type="bus_bus" depart="3.96" departLane="best" from="29875862#0" to="-371315812"/>
    <trip id="bus24" type="bus_bus" depart="4.14" departLane="best" from="921302252" to="-370816836"/>
    <trip id="bus25" type="bus_bus" depart="4.31" departLane="best" from="371293356" to="926534055#2"/>
    <trip id="bus26" type="bus_bus" depart="4.48" departLane="best" from="370284294#1" to="-310184811#1"/>
    <trip id="bus27" type="bus_bus" depart="4.65" departLane="best" from="-370531657#0" to="219870259#25"/>
    <trip id="bus28" type="bus_bus" depart="4.82" departLane="best" from="-370284250#3" to="-921989923#3"/>
    <trip id="bus29" type="bus_bus" depart="5.00" departLane="best" from="-934186396#0" to="370155193#1"/>
    <trip id="bus30" type="bus_bus" depart="5.17" departLane="best" from="29557380#0" to="370694626#2"/>
    <trip id="bus31" type="bus_bus" depart="5.34" departLane="best" from="-915060919#2" to="371318511#2"/>
    <trip id="bus32" type="bus_bus" depart="5.51" departLane="best" from="-370844089#0" to="-29031392#0"/>
    <trip id="bus33" type="bus_bus" depart="5.69" departLane="best" from="913398643" to="-371293422#13"/>
    <trip id="bus34" type="bus_bus" depart="5.86" departLane="best" from="-370816933#1" to="927483340#6"/>
    <trip id="bus35" type="bus_bus" depart="6.03" departLane="best" from="918648143#1" to="-913377706"/>
    <trip id="bus36" type="bus_bus" depart="6.20" departLane="best" from="-370531666#16" to="-924744904"/>
    <trip id="bus37" type="bus_bus" depart="6.38" departLane="best" from="678275762#2" to="-935807447"/>
    <trip id="bus38" type="bus_bus" depart="6.55" departLane="best" from="-371293183" to="-370849799#7"/>
    <trip id="bus39" type="bus_bus" depart="6.72" departLane="best" from="-29699567#0" to="-371124099#1"/>
    <trip id="bus40" type="bus_bus" depart="6.89" departLane="best" from="29877590" to="921942709#6"/>
    <trip id="bus41" type="bus_bus" depart="7.07" departLane="best" from="924993416#2" to="-370818042#1"/>
    <trip id="bus42" type="bus_bus" depart="7.24" departLane="best" from="957441388" to="29031644"/>
    <trip id="bus43" type="bus_bus" depart="7.41" departLane="best" from="29854025" to="-29058563#8"/>
    <trip id="bus44" type="bus_bus" depart="7.58" departLane="best" from="29893649#1" to="-370138452"/>
    <trip id="bus45" type="bus_bus" depart="7.75" departLane="best" from="678275762#11" to="930910626#3"/>
    <trip id="bus46" type="bus_bus" depart="7.93" departLane="best" from="29164318#1" to="922042821#2"/>
    <trip id="bus47" type="bus_bus" depart="8.10" departLane="best" from="935829213" to="29059402#8"/>
    <trip id="bus48" type="bus_bus" depart="8.27" departLane="best" from="932844046#2" to="917809429"/>
    <trip id="bus49" type="bus_bus" depart="8.44" departLane="best" from="370694496#0" to="29081030#2"/>
    <trip id="bus50" type="bus_bus" depart="8.62" departLane="best" from="-371293343" to="370155388#3"/>
    <trip id="bus51" type="bus_bus" depart="8.79" departLane="best" from="-29895497#12" to="-932603675"/>
    <trip id="bus52" type="bus_bus" depart="8.96" departLane="best" from="-934186416#0" to="-930969030"/>
    <trip id="bus53" type="bus_bus" depart="9.13" departLane="best" from="918619151#4" to="-371127320#2"/>
    <trip id="bus54" type="bus_bus" depart="9.31" departLane="best" from="28937273#8" to="-370541452#3"/>
    <trip id="bus55" type="bus_bus" depart="9.48" departLane="best" from="-923839279" to="918330462#2"/>
    <trip id="bus56" type="bus_bus" depart="9.65" departLane="best" from="-371447578#3" to="370155145#1"/>
    <trip id="bus57" type="bus_bus" depart="9.82" departLane="best" from="310184471#7" to="-370154856#17"/>
    <trip id="bus58" type="bus_bus" depart="9.99" departLane="best" from="371308366#1" to="-934186404#6"/>
    <trip id="bus59" type="bus_bus" depart="10.17" departLane="best" from="-371318595#6" to="29059476#4"/>
    <trip id="bus60" type="bus_bus" depart="10.34" departLane="best" from="-1043398559" to="-914638077#2"/>
    <trip id="bus61" type="bus_bus" depart="10.51" departLane="best" from="-242832353#3" to="-926171608#23"/>
    <trip id="bus62" type="bus_bus" depart="10.68" departLane="best" from="919021297" to="914921136"/>
    <trip id="bus63" type="bus_bus" depart="10.86" departLane="best" from="-85213314#3" to="-29077654#0"/>
    <trip id="bus64" type="bus_bus" depart="11.03" departLane="best" from="-918680885" to="930507561#0"/>
    <trip id="bus65" type="bus_bus" depart="11.20" departLane="best" from="29712097#17" to="219869064#8"/>
    <trip id="bus66" type="bus_bus" depart="11.37" departLane="best" from="29311736#0" to="371299878#0"/>
    <trip id="bus67" type="bus_bus" depart="11.55" departLane="best" from="371317863#1" to="-310184825#9"/>
    <trip id="bus68" type="bus_bus" depart="11.72" departLane="best" from="-1271415963#14" to="-29311784"/>
    <trip id="bus69" type="bus_bus" depart="11.89" departLane="best" from="-371293201#1" to="918536701#1"/>
    <trip id="bus70" type="bus_bus" depart="12.06" departLane="best" from="-930910694#2" to="-370816986#0"/>
    <trip id="bus71" type="bus_bus" depart="12.23" departLane="best" from="29143021#14" to="370849160"/>
    <trip id="bus72" type="bus_bus" depart="12.41" departLane="best" from="-370694906#3" to="913051064#0"/>
    <trip id="bus73" type="bus_bus" depart="12.58" departLane="best" from="-935807418" to="370528630#6"/>
    <trip id="bus74" type="bus_bus" depart="12.75" departLane="best" from="932796603#0" to="29056944#3"/>
    <trip id="bus75" type="bus_bus" depart="12.92" departLane="best" from="-310045036#7" to="370823729"/>
    <trip id="bus76" type="bus_bus" depart="13.10" departLane="best" from="-915061070#1" to="-29891490#4"/>
    <trip id="bus77" type="bus_bus" depart="13.27" departLane="best" from="-370844169#0" to="-370823465#2"/>
    <trip id="bus78" type="bus_bus" depart="13.44" departLane="best" from="-29317710#0" to="370143465"/>
    <trip id="bus79" type="bus_bus" depart="13.61" departLane="best" from="-370844086#1" to="922101077#0"/>
    <trip id="bus80" type="bus_bus" depart="13.79" departLane="best" from="-917809331" to="-29317673#1"/>
    <trip id="bus81" type="bus_bus" depart="13.96" departLane="best" from="-370844697#3" to="-370674083"/>
    <trip id="bus82" type="bus_bus" depart="14.13" departLane="best" from="370817816#3" to="327918134#2"/>
    <trip id="bus83" type="bus_bus" depart="14.30" departLane="best" from="926534002#1" to="29720628#0"/>
    <trip id="bus84" type="bus_bus" depart="14.47" departLane="best" from="1214735406" to="371447537#0"/>
    <trip id="bus85" type="bus_bus" depart="14.65" departLane="best" from="856494106#0" to="-370678180#0"/>
    <trip id="bus86" type="bus_bus" depart="14.82" departLane="best" from="-29873335#3" to="-932363619#0"/>
    <trip id="bus87" type="bus_bus" depart="14.99" departLane="best" from="930943651" to="-1061612147"/>
    <trip id="bus88" type="bus_bus" depart="15.16" departLane="best" from="370845514#9" to="370674307#5"/>
    <trip id="bus89" type="bus_bus" depart="15.34" departLane="best" from="-933762084#1" to="-29873972#0"/>
    <trip id="bus90" type="bus_bus" depart="15.51" departLane="best" from="926085049#0" to="-915349970#0"/>
    <trip id="bus91" type="bus_bus" depart="15.68" departLane="best" from="918112200#0" to="-371063695#5"/>
    <trip id="bus92" type="bus_bus" depart="15.85" departLane="best" from="-370678174#7" to="-933752009#0"/>
    <trip id="bus93" type="bus_bus" depart="16.03" departLane="best" from="29548512#18" to="371317859#7"/>
    <trip id="bus94" type="bus_bus" depart="16.20" departLane="best" from="-371063761" to="925035564"/>
    <trip id="bus95" type="bus_bus" depart="16.37" departLane="best" from="-933239099" to="918112189#3"/>
    <trip id="bus96" type="bus_bus" depart="16.54" departLane="best" from="29311998#5" to="-29058965#2"/>
    <trip id="bus97" type="bus_bus" depart="16.71" departLane="best" from="957564350" to="915001521"/>
    <trip id="bus98" type="bus_bus" depart="16.89" departLane="best" from="932761288#0" to="-926085047"/>
    <trip id="bus99" type="bus_bus" depart="17.06" departLane="best" from="915473934" to="370528632#12"/>
    <trip id="bus100" type="bus_bus" depart="17.23" departLane="best" from="219869061#14" to="-370817807#3"/>
    <trip id="bus101" type="bus_bus" depart="17.40" departLane="best" from="925174760" to="-29077760#2"/>
    <trip id="bus102" type="bus_bus" depart="17.58" departLane="best" from="-921941185#1" to="933772030"/>
    <trip id="bus103" type="bus_bus" depart="17.75" departLane="best" from="-371293209#0" to="371447515"/>
    <trip id="bus104" type="bus_bus" depart="17.92" departLane="best" from="-934747369" to="-930910689#0"/>
    <trip id="bus105" type="bus_bus" depart="18.09" departLane="best" from="931278473#9" to="935807438"/>
    <trip id="bus106" type="bus_bus" depart="18.27" departLane="best" from="29549730#2" to="370844273#6"/>
    <trip id="bus107" type="bus_bus" depart="18.44" departLane="best" from="-370155100#0" to="-371447507#1"/>
    <trip id="bus108" type="bus_bus" depart="18.61" departLane="best" from="-932722729" to="29874755#1"/>
    <trip id="bus109" type="bus_bus" depart="18.78" departLane="best" from="29163444#1" to="371077691#1"/>
    <trip id="bus110" type="bus_bus" depart="18.95" departLane="best" from="-29077459#2" to="29877324#2"/>
    <trip id="bus111" type="bus_bus" depart="19.13" departLane="best" from="28937849#3" to="917315331#0"/>
    <trip id="bus112" type="bus_bus" depart="19.30" departLane="best" from="-370155387#0" to="932347859#0"/>
    <trip id="bus113" type="bus_bus" depart="19.47" departLane="best" from="-29698747" to="-370674133#0"/>
    <trip id="bus114" type="bus_bus" depart="19.64" departLane="best" from="29898141#2" to="370678227#0"/>
    <trip id="bus115" type="bus_bus" depart="19.82" departLane="best" from="-370844570" to="310045011#1"/>
    <trip id="bus116" type="bus_bus" depart="19.99" departLane="best" from="-921663640#1" to="-370849789#0"/>
    <trip id="bus117" type="bus_bus" depart="20.16" departLane="best" from="29896943#11" to="369963783#1"/>
    <trip id="bus118" type="bus_bus" depart="20.33" departLane="best" from="930643161" to="29876929#0"/>
    <trip id="bus119" type="bus_bus" depart="20.51" departLane="best" from="-29058092#2" to="-926524271"/>
    <trip id="bus120" type="bus_bus" depart="20.68" departLane="best" from="-370809034#2" to="370844208#14"/>
    <trip id="bus121" type="bus_bus" depart="20.85" departLane="best" from="-370845273#0" to="-924744914"/>
    <trip id="bus122" type="bus_bus" depart="21.02" departLane="best" from="-370674244#3" to="-442156373#5"/>
    <trip id="bus123" type="bus_bus" depart="21.20" departLane="best" from="-913481811" to="-371293223#7"/>
    <trip id="bus124" type="bus_bus" depart="21.37" departLane="best" from="-29548531#30" to="935807407"/>
    <trip id="bus125" type="bus_bus" depart="21.54" departLane="best" from="957548284#0" to="935829211#2"/>
    <trip id="bus126" type="bus_bus" depart="21.71" departLane="best" from="-29548814#3" to="-370817041#5"/>
    <trip id="bus127" type="bus_bus" depart="21.88" departLane="best" from="-371293208#1" to="926506885#4"/>
    <trip id="bus128" type="bus_bus" depart="22.06" departLane="best" from="919079114#10" to="919028891#1"/>
    <trip id="bus129" type="bus_bus" depart="22.23" departLane="best" from="921147344" to="-370155401#0"/>
    <trip id="bus130" type="bus_bus" depart="22.40" departLane="best" from="914936293" to="370818029#0"/>
    <trip id="bus131" type="bus_bus" depart="22.57" departLane="best" from="-930969146#0" to="933858712#7"/>
    <trip id="bus132" type="bus_bus" depart="22.75" departLane="best" from="370528855#0" to="-1202753977#0"/>
    <trip id="bus133" type="bus_bus" depart="22.92" departLane="best" from="913504024" to="389542903#18"/>
    <trip id="bus134" type="bus_bus" depart="23.09" departLane="best" from="-370544077" to="926641605#9"/>
    <trip id="bus135" type="bus_bus" depart="23.26" departLane="best" from="-369798528#0" to="-29903304"/>
    <trip id="bus136" type="bus_bus" depart="23.44" departLane="best" from="29890801#5" to="29548582#1"/>
    <trip id="bus137" type="bus_bus" depart="23.61" departLane="best" from="371299791#0" to="310058411#20"/>
    <trip id="bus138" type="bus_bus" depart="23.78" departLane="best" from="370844245#2" to="370694994#5"/>
    <trip id="bus139" type="bus_bus" depart="23.95" departLane="best" from="370154637#3" to="371291892#0"/>
    <trip id="bus140" type="bus_bus" depart="24.12" departLane="best" from="-225541182#3" to="-922080203#0"/>
    <trip id="bus141" type="bus_bus" depart="24.30" departLane="best" departSpeed="max" from="915334963#0" to="-29858337#1"/>
    <trip id="bus142" type="bus_bus" depart="24.47" departLane="best" from="930943651" to="-371308434#11"/>
    <trip id="bus143" type="bus_bus" depart="24.64" departLane="best" from="1060454689#0" to="371318240#11"/>
    <trip id="bus144" type="bus_bus" depart="24.81" departLane="best" from="-370154930#6" to="371077712#3"/>
    <trip id="bus145" type="bus_bus" depart="24.99" departLane="best" from="371068124" to="29317803#4"/>
    <trip id="bus146" type="bus_bus" depart="25.16" departLane="best" from="-931278473#0" to="-1268977449#2"/>
    <trip id="bus147" type="bus_bus" depart="25.33" departLane="best" from="-29549639#0" to="-920714003"/>
    <trip id="bus148" type="bus_bus" depart="25.50" departLane="best" from="-922065625#11" to="29165733#0"/>
    <trip id="bus149" type="bus_bus" depart="25.68" departLane="best" from="914950771#5" to="-29876385"/>
    <trip id="bus150" type="bus_bus" depart="25.85" departLane="best" from="370143493" to="-310184812#12"/>
    <trip id="bus151" type="bus_bus" depart="26.02" departLane="best" from="856494130#0" to="-921990018#0"/>
    <trip id="bus152" type="bus_bus" depart="26.19" departLane="best" from="743162714#10" to="917809421#1"/>
    <trip id="bus153" type="bus_bus" depart="26.36" departLane="best" from="921990014" to="370816870#1"/>
    <trip id="bus154" type="bus_bus" depart="26.54" departLane="best" from="-371063735" to="-29876546#60"/>
    <trip id="bus155" type="bus_bus" depart="26.71" departLane="best" from="-371443379#2" to="-920729152"/>
    <trip id="bus156" type="bus_bus" depart="26.88" departLane="best" from="926179918" to="369981411"/>
    <trip id="bus157" type="bus_bus" depart="27.05" departLane="best" from="-370155087#2" to="-926179831"/>
    <trip id="bus158" type="bus_bus" depart="27.23" departLane="best" from="918131659#15" to="933216704#6"/>
    <trip id="bus159" type="bus_bus" depart="27.40" departLane="best" from="912552796#3" to="919082123#1"/>
    <trip id="bus160" type="bus_bus" depart="27.57" departLane="best" from="28937255#31" to="371063808#1"/>
    <trip id="bus161" type="bus_bus" depart="27.74" departLane="best" from="915001635#2" to="926179898#6"/>
    <trip id="bus162" type="bus_bus" depart="27.92" departLane="best" from="927476632#8" to="918121319"/>
    <trip id="bus163" type="bus_bus" depart="28.09" departLane="best" from="912552796#1" to="-371293344"/>
    <trip id="bus164" type="bus_bus" depart="28.26" departLane="best" from="431733591#3" to="-29892047#1"/>
    <trip id="bus165" type="bus_bus" depart="28.43" departLane="best" from="918513914" to="917800521#3"/>
    <trip id="bus166" type="bus_bus" depart="28.60" departLane="best" from="-370823591#5" to="913398662#0"/>
    <trip id="bus167" type="bus_bus" depart="28.78" departLane="best" from="-956452600#3" to="761927134#1"/>
    <trip id="bus168" type="bus_bus" depart="28.95" departLane="best" from="743162704#14" to="370843933"/>
    <trip id="bus169" type="bus_bus" depart="29.12" departLane="best" from="28928686#2" to="370678353#2"/>
    <trip id="bus170" type="bus_bus" depart="29.29" departLane="best" from="914928506" to="918131647#0"/>
    <trip id="bus171" type="bus_bus" depart="29.47" departLane="best" from="932680663#2" to="371317875#0"/>
    <trip id="bus172" type="bus_bus" depart="29.64" departLane="best" from="370155409#3" to="-925000276#0"/>
    <trip id="bus173" type="bus_bus" depart="29.81" departLane="best" from="933319399" to="931345120#6"/>
    <trip id="bus174" type="bus_bus" depart="29.98" departLane="best" from="-926926257" to="-29903106#1"/>
    <trip id="bus175" type="bus_bus" depart="30.16" departLane="best" from="932813734" to="-370541445#0"/>
    <trip id="bus176" type="bus_bus" depart="30.33" departLane="best" from="932366346" to="-371293225#4"/>
    <trip id="bus177" type="bus_bus" depart="30.50" departLane="best" from="29892538#0" to="-932603649"/>
    <trip id="bus178" type="bus_bus" depart="30.67" departLane="best" from="370845504#0" to="913057131"/>
    <trip id="bus179" type="bus_bus" depart="30.84" departLane="best" from="310066061#9" to="-29032102#6"/>
    <trip id="bus180" type="bus_bus" depart="31.02" departLane="best" from="-922397129#3" to="29873133#6"/>
    <trip id="bus181" type="bus_bus" depart="31.19" departLane="best" from="-371068085" to="370823672#0"/>
    <trip id="bus182" type="bus_bus" depart="31.36" departLane="best" from="-1043437809" to="926034984#4"/>
    <trip id="bus183" type="bus_bus" depart="31.53" departLane="best" from="29142614#12" to="370844461#8"/>
    <trip id="bus184" type="bus_bus" depart="31.71" departLane="best" from="371068178#0" to="370674190#1"/>
    <trip id="bus185" type="bus_bus" depart="31.88" departLane="best" from="919028880#2" to="-29312001#0"/>
    <trip id="bus186" type="bus_bus" depart="32.05" departLane="best" from="-370669700#13" to="-914959898#4"/>
    <trip id="bus187" type="bus_bus" depart="32.22" departLane="best" from="-913057150#0" to="-915473871#0"/>
    <trip id="bus188" type="bus_bus" depart="32.40" departLane="best" from="-370844470#1" to="455687790#2"/>
    <trip id="bus189" type="bus_bus" depart="32.57" departLane="best" from="-856537374#1" to="310023655#2"/>
    <trip id="bus190" type="bus_bus" depart="32.74" departLane="best" from="-926051329" to="-371445010#4"/>
    <trip id="bus191" type="bus_bus" depart="32.91" departLane="best" from="927016149" to="-370678353#0"/>
    <trip id="bus192" type="bus_bus" depart="33.08" departLane="best" from="922051264" to="361899479"/>
    <trip id="bus193" type="bus_bus" depart="33.26" departLane="best" from="-540189210" to="29166540#3"/>
    <trip id="bus194" type="bus_bus" depart="33.43" departLane="best" from="-1043398529" to="-371318416#0"/>
    <trip id="bus195" type="bus_bus" depart="33.60" departLane="best" from="-932336917#0" to="-29875116"/>
    <trip id="bus196" type="bus_bus" depart="33.77" departLane="best" from="370531655#1" to="-1049299627#0"/>
    <trip id="bus197" type="bus_bus" depart="33.95" departLane="best" from="-933216693" to="-370817806#8"/>
    <trip id="bus198" type="bus_bus" depart="34.12" departLane="best" from="1221680481#0" to="-922040164#14"/>
    <trip id="bus199" type="bus_bus" depart="34.29" departLane="best" from="743162712#30" to="370528841#3"/>
    <trip id="bus200" type="bus_bus" depart="34.46" departLane="best" from="-29711462#0" to="29036181#10"/>
    <trip id="bus201" type="bus_bus" depart="34.64" departLane="best" from="-370154596#2" to="-915060823#1"/>
    <trip id="bus202" type="bus_bus" depart="34.81" departLane="best" from="913504119#4" to="-371293171#25"/>
    <trip id="bus203" type="bus_bus" depart="34.98" departLane="best" from="370674290#1" to="-370823727#3"/>
    <trip id="bus204" type="bus_bus" depart="35.15" departLane="best" from="-370694587#2" to="28928723#7"/>
    <trip id="bus205" type="bus_bus" depart="35.33" departLane="best" from="-370849203#4" to="1271398413"/>
    <trip id="bus206" type="bus_bus" depart="35.50" departLane="best" from="915800931" to="-29548598#12"/>
    <trip id="bus207" type="bus_bus" depart="35.67" departLane="best" from="-927080310" to="370138647#3"/>
    <trip id="bus208" type="bus_bus" depart="35.84" departLane="best" from="-370694232#3" to="370816982#0"/>
    <trip id="bus209" type="bus_bus" depart="36.01" departLane="best" from="28851496#8" to="370849154#0"/>
    <trip id="bus210" type="bus_bus" depart="36.19" departLane="best" from="370531672#7" to="1104746033"/>
    <trip id="bus211" type="bus_bus" depart="36.36" departLane="best" from="371293169#3" to="371318185"/>
    <trip id="bus212" type="bus_bus" depart="36.53" departLane="best" from="-29890679#22" to="-930969064"/>
    <trip id="bus213" type="bus_bus" depart="36.70" departLane="best" from="-370531869#3" to="932243630#1"/>
    <trip id="bus214" type="bus_bus" depart="36.88" departLane="best" from="-29057011#5" to="-29058940#9"/>
    <trip id="bus215" type="bus_bus" depart="37.05" departLane="best" from="-371063702" to="915473896#1"/>
    <trip id="bus216" type="bus_bus" depart="37.22" departLane="best" from="-935470570#0" to="757108397#14"/>
    <trip id="bus217" type="bus_bus" depart="37.39" departLane="best" from="370673965#10" to="-933860452"/>
    <trip id="bus218" type="bus_bus" depart="37.57" departLane="best" from="29901264#4" to="-930892855#2"/>
    <trip id="bus219" type="bus_bus" depart="37.74" departLane="best" from="29157337" to="327911733#2"/>
    <trip id="bus220" type="bus_bus" depart="37.91" departLane="best" from="370844459#1" to="28938873#19"/>
    <trip id="bus221" type="bus_bus" depart="38.08" departLane="best" from="-914707809" to="29166458#1"/>
    <trip id="bus222" type="bus_bus" depart="38.25" departLane="best" from="-921930227#7" to="371068261#0"/>
    <trip id="bus223" type="bus_bus" depart="38.43" departLane="best" from="-1270822366" to="-371076026#1"/>
    <trip id="bus224" type="bus_bus" depart="38.60" departLane="best" from="-370849823#5" to="370155057#1"/>
    <trip id="bus225" type="bus_bus" depart="38.77" departLane="best" from="371317862#8" to="-29057505"/>
    <trip id="bus226" type="bus_bus" depart="38.94" departLane="best" from="-370138423#2" to="-371299916#1"/>
    <trip id="bus227" type="bus_bus" depart="39.12" departLane="best" from="-29560745#2" to="-371318355#0"/>
    <trip id="bus228" type="bus_bus" depart="39.29" departLane="best" from="-371299730" to="914129049"/>
    <trip id="bus229" type="bus_bus" depart="39.46" departLane="best" from="29144057#1" to="-369981535#0"/>
    <trip id="bus230" type="bus_bus" depart="39.63" departLane="best" from="-370844225#1" to="370816817"/>
    <trip id="bus231" type="bus_bus" depart="39.81" departLane="best" from="-370823497#0" to="-29165091#0"/>
    <trip id="bus232" type="bus_bus" depart="39.98" departLane="best" from="926448725" to="29163641#3"/>
    <trip id="bus233" type="bus_bus" depart="40.15" departLane="best" from="927680285#1" to="-370809939#3"/>
    <trip id="bus234" type="bus_bus" depart="40.32" departLane="best" from="-930875339" to="922065645#5"/>
    <trip id="bus235" type="bus_bus" depart="40.49" departLane="best" from="29877242#0" to="370816928#1"/>
    <trip id="bus236" type="bus_bus" depart="40.67" departLane="best" from="917687484#5" to="371317859#6"/>
    <trip id="bus237" type="bus_bus" depart="40.84" departLane="best" from="-921990018#1" to="-1120097793#0"/>
    <trip id="bus238" type="bus_bus" depart="41.01" departLane="best" from="-918117156#4" to="371293360"/>
    <trip id="bus239" type="bus_bus" depart="41.18" departLane="best" from="917398264#1" to="930967712#0"/>
    <trip id="bus240" type="bus_bus" depart="41.36" departLane="best" from="930643149#1" to="-371077664#0"/>
    <trip id="bus241" type="bus_bus" depart="41.53" departLane="best" from="-29165858#3" to="310054585#2"/>
    <trip id="bus242" type="bus_bus" depart="41.70" departLane="best" from="370823470#0" to="-370818146"/>
    <trip id="bus243" type="bus_bus" depart="41.87" departLane="best" from="-932680709#0" to="-28938549#1"/>
    <trip id="bus244" type="bus_bus" depart="42.05" departLane="best" from="-915060919#7" to="370694253#2"/>
    <trip id="bus245" type="bus_bus" depart="42.22" departLane="best" from="926161954#0" to="-370286315"/>
    <trip id="bus246" type="bus_bus" depart="42.39" departLane="best" from="1065839205#1" to="-310184812#37"/>
    <trip id="bus247" type="bus_bus" depart="42.56" departLane="best" from="-370125458#3" to="-28937549#3"/>
    <trip id="bus248" type="bus_bus" depart="42.73" departLane="best" from="-924628809#0" to="29710486#8"/>
    <trip id="bus249" type="bus_bus" depart="42.91" departLane="best" from="28937638#2" to="370279033"/>
    <trip id="bus250" type="bus_bus" depart="43.08" departLane="best" from="-369963702#1" to="-957548299"/>
    <trip id="bus251" type="bus_bus" depart="43.25" departLane="best" from="-29058941#15" to="-921942708#2"/>
    <trip id="bus252" type="bus_bus" depart="43.42" departLane="best" from="370816977#0" to="-914919449"/>
    <trip id="bus253" type="bus_bus" depart="43.60" departLane="best" from="371299904#6" to="-921942708#6"/>
    <trip id="bus254" type="bus_bus" depart="43.77" departLane="best" from="371293229#5" to="914922853#2"/>
    <trip id="bus255" type="bus_bus" depart="43.94" departLane="best" from="-371063866#2" to="-29709325#5"/>
    <trip id="bus256" type="bus_bus" depart="44.11" departLane="best" from="-242832348#3" to="920074687#6"/>
    <trip id="bus257" type="bus_bus" depart="44.29" departLane="best" from="984941538#1" to="-917809436#2"/>
    <trip id="bus258" type="bus_bus" depart="44.46" departLane="best" from="-370528639" to="-371443682#0"/>