<routes xmlns:xsi="http://www.w3.org/2001/XMLSchema-instance" xsi:noNamespaceSchemaLocation="http://sumo.dlr.de/xsd/routes_file.xsd">
	<vType id="motorcycle_motorcycle" vClass="motorcycle"/>
	<trip id="motorcycle0" type="motorcycle_motorcycle" depart="0.00" departLane="best" from="-29875672#0" to="29873772#5"/>
	<trip id="motorcycle1" type="motorcycle_motorcycle" depart="2.50" departLane="best" from="-371051978" to="-29895850#3"/>
	<trip id="motorcycle2" type="motorcycle_motorcycle" depart="5.00" departLane="best" from="29032902#11" to="29895497#17"/>
	<trip id="motorcycle3" type="motorcycle_motorcycle" depart="7.50" departLane="best" from="-955267015" to="369963805#0"/>
	<trip id="motorcycle4" type="motorcycle_motorcycle" depart="10.00" departLane="best" from="370138677#0" to="-29895943#1"/>
	<trip id="motorcycle5" type="motorcycle_motorcycle" depart="12.50" departLane="best" from="29857373#6" to="-29895677#1"/>
	<trip id="motorcycle6" type="motorcycle_motorcycle" depart="15.00" departLane="best" from="-29034501" to="-29895677#1"/>
	<trip id="motorcycle7" type="motorcycle_motorcycle" depart="17.50" departLane="best" from="-29034496" to="933114642#7"/>
	<trip id="motorcycle8" type="motorcycle_motorcycle" depart="20.00" departLane="best" from="29873198" to="-29896154#7"/>
	<trip id="motorcycle9" type="motorcycle_motorcycle" depart="22.50" departLane="best" from="-29861240" to="-29895584#2"/>
	<trip id="motorcycle10" type="motorcycle_motorcycle" depart="25.00" departLane="best" from="-371051987#12" to="29896595#3"/>
	<trip id="motorcycle11" type="motorcycle_motorcycle" depart="27.50" departLane="best" from="757107613#1" to="29895584#1"/>
	<trip id="motorcycle12" type="motorcycle_motorcycle" depart="30.00" departLane="best" from="921930226#12" to="-29895852#2"/>
	<trip id="motorcycle13" type="motorcycle_motorcycle" depart="32.50" departLane="best" from="757101432#6" to="933114642#6"/>
	<trip id="motorcycle14" type="motorcycle_motorcycle" depart="35.00" departLane="best" from="921930200" to="-29895661#0"/>
	<trip id="motorcycle15" type="motorcycle_motorcycle" depart="37.50" departLane="best" from="371065189#1" to="-370844621#0"/>
	<trip id="motorcycle16" type="motorcycle_motorcycle" depart="40.00" departLane="best" from="29857439" to="29895852#5"/>
	<trip id="motorcycle17" type="motorcycle_motorcycle" depart="42.50" departLane="best" from="-29034374#1" to="-29895852#5"/>
	<trip id="motorcycle18" type="motorcycle_motorcycle" depart="45.00" departLane="best" from="-29032902#7" to="-29895409#1"/>
	<trip id="motorcycle19" type="motorcycle_motorcycle" depart="47.50" departLane="best" from="-29867287#3" to="-29895651#3"/>
	<trip id="motorcycle20" type="motorcycle_motorcycle" depart="50.00" departLane="best" from="-933212337" to="-29895679#0"/>
	<trip id="motorcycle21" type="motorcycle_motorcycle" depart="52.50" departLane="best" from="933230247#17" to="-29895651#11"/>
	<trip id="motorcycle22" type="motorcycle_motorcycle" depart="55.00" departLane="best" from="370138429#1" to="29896175#2"/>
	<trip id="motorcycle23" type="motorcycle_motorcycle" depart="57.50" departLane="best" from="29873157#1" to="933114643#9"/>
	<trip id="motorcycle24" type="motorcycle_motorcycle" depart="60.00" departLane="best" from="-371065186#1" to="29895891"/>
	<trip id="motorcycle25" type="motorcycle_motorcycle" depart="62.50" departLane="best" from="29869948#0" to="29895651#4"/>
	<trip id="motorcycle26" type="motorcycle_motorcycle" depart="65.00" departLane="best" from="-29856157" to="934674672#0"/>
	<trip id="motorcycle27" type="motorcycle_motorcycle" depart="67.50" departLane="best" from="370138421#6" to="797841582"/>
	<trip id="motorcycle28" type="motorcycle_motorcycle" depart="70.00" departLane="best" from="932761289#2" to="-29895584#6"/>
	<trip id="motorcycle29" type="motorcycle_motorcycle" depart="72.50" departLane="best" from="-29866827" to="29166752#22"/>
	<trip id="motorcycle30" type="motorcycle_motorcycle" depart="75.00" departLane="best" from="371065188#1" to="-29895497#13"/>
	<trip id="motorcycle31" type="motorcycle_motorcycle" depart="77.50" departLane="best" from="-29034328#5" to="29166752#27"/>
	<trip id="motorcycle32" type="motorcycle_motorcycle" depart="80.00" departLane="best" from="-370143490#1" to="-29895943#3"/>
	<trip id="motorcycle33" type="motorcycle_motorcycle" depart="82.50" departLane="best" from="933239111" to="29895497#8"/>
	<trip id="motorcycle34" type="motorcycle_motorcycle" depart="85.00" departLane="best" from="-371065182#0" to="29896139#1"/>
	<trip id="motorcycle35" type="motorcycle_motorcycle" depart="87.50" departLane="best" from="-370138644#1" to="29896154#2"/>
	<trip id="motorcycle36" type="motorcycle_motorcycle" depart="90.00" departLane="best" from="921989990" to="-369963783#0"/>
	<trip id="motorcycle37" type="motorcycle_motorcycle" depart="92.50" departLane="best" from="29032102#6" to="-29895601"/>
	<trip id="motorcycle38" type="motorcycle_motorcycle" depart="95.00" departLane="best" from="921989976#5" to="-29895682#1"/>
	<trip id="motorcycle39" type="motorcycle_motorcycle" depart="97.50" departLane="best" from="-918680940" to="369963769"/>
	<trip id="motorcycle40" type="motorcycle_motorcycle" depart="100.00" departLane="best" from="29035951#1" to="29896595#3"/>
	<trip id="motorcycle41" type="motorcycle_motorcycle" depart="102.50" departLane="best" from="-918320660#4" to="29895584#6"/>
	<trip id="motorcycle42" type="motorcycle_motorcycle" depart="105.00" departLane="best" from="933832471#20" to="29895852#2"/>
	<trip id="motorcycle43" type="motorcycle_motorcycle" depart="107.50" departLane="best" from="933216697#2" to="-933123787#2"/>
	<trip id="motorcycle44" type="motorcycle_motorcycle" depart="110.00" departLane="best" from="-957544353" to="-29895677#0"/>
	<trip id="motorcycle45" type="motorcycle_motorcycle" depart="112.50" departLane="best" from="-1218172594#2" to="370844621#0"/>
	<trip id="motorcycle46" type="motorcycle_motorcycle" depart="115.00" departLane="best" from="29032964#3" to="29895584#2"/>
	<trip id="motorcycle47" type="motorcycle_motorcycle" depart="117.50" departLane="best" from="29873188#0" to="29895759#1"/>
	<trip id="motorcycle48" type="motorcycle_motorcycle" depart="120.00" departLane="best" from="-29720227" to="-29895497#24"/>
	<trip id="motorcycle49" type="motorcycle_motorcycle" depart="122.50" departLane="best" from="29035881" to="29896204#1"/>
	<trip id="motorcycle50" type="motorcycle_motorcycle" depart="125.00" departLane="best" from="370138421#3" to="29896125#2"/>
	<trip id="motorcycle51" type="motorcycle_motorcycle" depart="127.50" departLane="best" from="-933255414#1" to="-29895867"/>
	<trip id="motorcycle52" type="motorcycle_motorcycle" depart="130.00" departLane="best" from="29032964#0" to="29896136#1"/>
	<trip id="motorcycle53" type="motorcycle_motorcycle" depart="132.50" departLane="best" from="-1059803889#1" to="29166752#22"/>
	<trip id="motorcycle54" type="motorcycle_motorcycle" depart="135.00" departLane="best" from="-29867729#1" to="-29895580#0"/>
	<trip id="motorcycle55" type="motorcycle_motorcycle" depart="137.50" departLane="best" from="-370138624" to="-29166752#21"/>
	<trip id="motorcycle56" type="motorcycle_motorcycle" depart="140.00" departLane="best" from="-29855485" to="-29896124#7"/>
	<trip id="motorcycle57" type="motorcycle_motorcycle" depart="142.50" departLane="best" from="29034363" to="-29312028#9"/>
	<trip id="motorcycle58" type="motorcycle_motorcycle" depart="145.00" departLane="best" from="85213314#0" to="-29895497#9"/>
	<trip id="motorcycle59" type="motorcycle_motorcycle" depart="147.50" departLane="best" from="-29034410#0" to="29895409#5"/>
	<trip id="motorcycle60" type="motorcycle_motorcycle" depart="150.00" departLane="best" from="-29853829#1" to="-29896204#0"/>
	<trip id="motorcycle61" type="motorcycle_motorcycle" depart="152.50" departLane="best" from="933216704#11" to="29896177#0"/>
	<trip id="motorcycle62" type="motorcycle_motorcycle" depart="155.00" departLane="best" from="371065195#0" to="-29895852#3"/>
	<trip id="motorcycle63" type="motorcycle_motorcycle" depart="157.50" departLane="best" from="818009681#2" to="29895730#1"/>
	<trip id="motorcycle64" type="motorcycle_motorcycle" depart="160.00" departLane="best" from="370138651#2" to="-29895737"/>
	<trip id="motorcycle65" type="motorcycle_motorcycle" depart="162.50" departLane="best" from="932761288#4" to="933123785"/>
	<trip id="motorcycle66" type="motorcycle_motorcycle" depart="165.00" departLane="best" from="29873072" to="29896138"/>
	<trip id="motorcycle67" type="motorcycle_motorcycle" depart="167.50" departLane="best" from="29142702#4" to="29896139#0"/>
	<trip id="motorcycle68" type="motorcycle_motorcycle" depart="170.00" departLane="best" from="29032902#2" to="933114643#10"/>
	<trip id="motorcycle69" type="motorcycle_motorcycle" depart="172.50" departLane="best" from="29032102#3" to="29895934#1"/>
	<trip id="motorcycle70" type="motorcycle_motorcycle" depart="175.00" departLane="best" from="757101432#0" to="29895817"/>
	<trip id="motorcycle71" type="motorcycle_motorcycle" depart="177.50" departLane="best" from="29713820#1" to="29895852#1"/>
	<trip id="motorcycle72" type="motorcycle_motorcycle" depart="180.00" departLane="best" from="-371052004#3" to="-29895924#0"/>
	<trip id="motorcycle73" type="motorcycle_motorcycle" depart="182.50" departLane="best" from="757102089#4" to="-29895804#3"/>
	<trip id="motorcycle74" type="motorcycle_motorcycle" depart="185.00" departLane="best" from="-918680933#1" to="933114642#8"/>
	<trip id="motorcycle75" type="motorcycle_motorcycle" depart="187.50" departLane="best" from="371052000#23" to="-29895852#3"/>
	<trip id="motorcycle76" type="motorcycle_motorcycle" depart="190.00" departLane="best" from="29031926#11" to="29895933"/>
	<trip id="motorcycle77" type="motorcycle_motorcycle" depart="192.50" departLane="best" from="29034273#0" to="933114642#4"/>
	<trip id="motorcycle78" type="motorcycle_motorcycle" depart="195.00" departLane="best" from="-29868944" to="29895812#2"/>
	<trip id="motorcycle79" type="motorcycle_motorcycle" depart="197.50" departLane="best" from="371051958" to="29896125#2"/>
	<trip id="motorcycle80" type="motorcycle_motorcycle" depart="200.00" departLane="best" from="370138423#2" to="934674672#0"/>
	<trip id="motorcycle81" type="motorcycle_motorcycle" depart="202.50" departLane="best" from="370138424#1" to="-29895891"/>
	<trip id="motorcycle82" type="motorcycle_motorcycle" depart="205.00" departLane="best" from="-29873048#1" to="29895677#1"/>
	<trip id="motorcycle83" type="motorcycle_motorcycle" depart="207.50" departLane="best" from="-29034241#1" to="29895601"/>
	<trip id="motorcycle84" type="motorcycle_motorcycle" depart="210.00" departLane="best" from="-29720389#0" to="370844532"/>
	<trip id="motorcycle85" type="motorcycle_motorcycle" depart="212.50" departLane="best" from="-923618355#0" to="-29896124#5"/>
	<trip id="motorcycle86" type="motorcycle_motorcycle" depart="215.00" departLane="best" from="29034201#5" to="29895497#15"/>
	<trip id="motorcycle87" type="motorcycle_motorcycle" depart="217.50" departLane="best" from="-29032965#1" to="-915056093"/>
	<trip id="motorcycle88" type="motorcycle_motorcycle" depart="220.00" departLane="best" from="933239106#1" to="-29895497#19"/>
	<trip id="motorcycle89" type="motorcycle_motorcycle" depart="222.50" departLane="best" from="361899472" to="29895651#1"/>
	<trip id="motorcycle90" type="motorcycle_motorcycle" depart="225.00" departLane="best" from="-371051987#13" to="29895497#19"/>
	<trip id="motorcycle91" type="motorcycle_motorcycle" depart="227.50" departLane="best" from="29034471#1" to="29896177#2"/>
	<trip id="motorcycle92" type="motorcycle_motorcycle" depart="230.00" departLane="best" from="-370143509#0" to="933123787#2"/>
	<trip id="motorcycle93" type="motorcycle_motorcycle" depart="232.50" departLane="best" from="-29870918#4" to="29895497#8"/>
	<trip id="motorcycle94" type="motorcycle_motorcycle" depart="235.00" departLane="best" from="-371051980" to="29895580#0"/>
	<trip id="motorcycle95" type="motorcycle_motorcycle" depart="237.50" departLane="best" from="-818009683#2" to="29895850#1"/>
	<trip id="motorcycle96" type="motorcycle_motorcycle" depart="240.00" departLane="best" from="-29034330#3" to="-29895912#0"/>
	<trip id="motorcycle97" type="motorcycle_motorcycle" depart="242.50" departLane="best" from="-933269870" to="-369963783#0"/>
	<trip id="motorcycle98" type="motorcycle_motorcycle" depart="245.00" departLane="best" from="-370143483" to="933114642#6"/>
	<trip id="motorcycle99" type="motorcycle_motorcycle" depart="247.50" departLane="best" from="-29033034#2" to="-29895409#3"/>
	<trip id="motorcycle100" type="motorcycle_motorcycle" depart="250.00" departLane="best" from="933269871#0" to="29895733#0"/>
	<trip id="motorcycle101" type="motorcycle_motorcycle" depart="252.50" departLane="best" from="-933239102" to="29895679#1"/>
	<trip id="motorcycle102" type="motorcycle_motorcycle" depart="255.00" departLane="best" from="29033330#3" to="933114642#4"/>
	<trip id="motorcycle103" type="motorcycle_motorcycle" depart="257.50" departLane="best" from="29713820#9" to="915056093"/>
	<trip id="motorcycle104" type="motorcycle_motorcycle" depart="260.00" departLane="best" from="-818305721" to="-29895682#0"/>
	<trip id="motorcycle105" type="motorcycle_motorcycle" depart="262.50" departLane="best" from="29031934#2" to="29895867"/>
	<trip id="motorcycle106" type="motorcycle_motorcycle" depart="265.00" departLane="best" from="361899471#1" to="29895759#1"/>
	<trip id="motorcycle107" type="motorcycle_motorcycle" depart="267.50" departLane="best" from="-85213314#1" to="-29895938"/>
	<trip id="motorcycle108" type="motorcycle_motorcycle" depart="270.00" departLane="best" from="818305715" to="29895651#2"/>
	<trip id="motorcycle109" type="motorcycle_motorcycle" depart="272.50" departLane="best" from="-29720389#0" to="29896624#2"/>
	<trip id="motorcycle110" type="motorcycle_motorcycle" depart="275.00" departLane="best" from="-29034286#1" to="29895541#0"/>
	<trip id="motorcycle111" type="motorcycle_motorcycle" depart="277.50" departLane="best" from="-29857735#2" to="-933123787#1"/>
	<trip id="motorcycle112" type="motorcycle_motorcycle" depart="280.00" departLane="best" from="-29872403#2" to="-29895901#1"/>
	<trip id="motorcycle113" type="motorcycle_motorcycle" depart="282.50" departLane="best" from="933216704#23" to="-29312028#2"/>
	<trip id="motorcycle114" type="motorcycle_motorcycle" depart="285.00" departLane="best" from="-1273243126" to="-29896154#2"/>
	<trip id="motorcycle115" type="motorcycle_motorcycle" depart="287.50" departLane="best" from="29719421#16" to="-29895497#11"/>
	<trip id="motorcycle116" type="motorcycle_motorcycle" depart="290.00" departLane="best" from="-29871625#1" to="-29896609#3"/>
	<trip id="motorcycle117" type="motorcycle_motorcycle" depart="292.50" departLane="best" from="361899480#3" to="370844621#2"/>
	<trip id="motorcycle118" type="motorcycle_motorcycle" depart="295.00" departLane="best" from="-371052000#15" to="-29896304#1"/>
	<trip id="motorcycle119" type="motorcycle_motorcycle" depart="297.50" departLane="best" from="-1322444387" to="29895727#2"/>
	<trip id="motorcycle120" type="motorcycle_motorcycle" depart="300.00" departLane="best" from="1214772052#1" to="29895804#1"/>
	<trip id="motorcycle121" type="motorcycle_motorcycle" depart="302.50" departLane="best" from="29034505#2" to="29312028#3"/>
	<trip id="motorcycle122" type="motorcycle_motorcycle" depart="305.00" departLane="best" from="-370138515#3" to="-29896139#0"/>
	<trip id="motorcycle123" type="motorcycle_motorcycle" depart="307.50" departLane="best" from="1214772681" to="-29895852#6"/>
	<trip id="motorcycle124" type="motorcycle_motorcycle" depart="310.00" departLane="best" from="310184008#0" to="29895584#6"/>
	<trip id="motorcycle125" type="motorcycle_motorcycle" depart="312.50" departLane="best" from="29867344#1" to="-29895711#0"/>
	<trip id="motorcycle126" type="motorcycle_motorcycle" depart="315.00" departLane="best" from="833120936#7" to="29896646"/>
	<trip id="motorcycle127" type="motorcycle_motorcycle" depart="317.50" departLane="best" from="-371052000#24" to="369963783#1"/>
	<trip id="motorcycle128" type="motorcycle_motorcycle" depart="320.00" departLane="best" from="933269865#9" to="29895409#3"/>
	<trip id="motorcycle129" type="motorcycle_motorcycle" depart="322.50" departLane="best" from="918680938" to="29895850#5"/>
	<trip id="motorcycle130" type="motorcycle_motorcycle" depart="325.00" departLane="best" from="-29873134#6" to="-29895852#6"/>
	<trip id="motorcycle131" type="motorcycle_motorcycle" depart="327.50" departLane="best" from="29858987#3" to="933114642#10"/>
	<trip id="motorcycle132" type="motorcycle_motorcycle" depart="330.00" departLane="best" from="1322444386" to="29895497#12"/>
	<trip id="motorcycle133" type="motorcycle_motorcycle" depart="332.50" departLane="best" from="933269869" to="29895497#15"/>
	<trip id="motorcycle134" type="motorcycle_motorcycle" depart="335.00" departLane="best" from="-29034387#4" to="933114643#10"/>
	<trip id="motorcycle135" type="motorcycle_motorcycle" depart="337.50" departLane="best" from="-933216704#24" to="-29895584#3"/>
	<trip id="motorcycle136" type="motorcycle_motorcycle" depart="340.00" departLane="best" from="1271938601#1" to="29895814"/>
	<trip id="motorcycle137" type="motorcycle_motorcycle" depart="342.50" departLane="best" from="29858493#3" to="-29895679#1"/>
	<trip id="motorcycle138" type="motorcycle_motorcycle" depart="345.00" departLane="best" from="-933239104" to="-29895805#1"/>
	<trip id="motorcycle139" type="motorcycle_motorcycle" depart="347.50" departLane="best" from="757101446#5" to="-369963749"/>
	<trip id="motorcycle140" type="motorcycle_motorcycle" depart="350.00" departLane="best" from="29859041" to="-29895651#8"/>
	<trip id="motorcycle141" type="motorcycle_motorcycle" depart="352.50" departLane="best" from="-934707512#1" to="29896124#7"/>
	<trip id="motorcycle142" type="motorcycle_motorcycle" depart="355.00" departLane="best" from="-29857812" to="-29895804#3"/>
	<trip id="motorcycle143" type="motorcycle_motorcycle" depart="357.50" departLane="best" from="-29868493" to="-29895611#0"/>
	<trip id="motorcycle144" type="motorcycle_motorcycle" depart="360.00" departLane="best" from="-29034455" to="-29896124#2"/>
	<trip id="motorcycle145" type="motorcycle_motorcycle" depart="362.50" departLane="best" from="-310184007#2" to="29895611#2"/>
	<trip id="motorcycle146" type="motorcycle_motorcycle" depart="365.00" departLane="best" from="933228467" to="29895720#0"/>
	<trip id="motorcycle147" type="motorcycle_motorcycle" depart="367.50" departLane="best" from="29873134#7" to="29895891"/>
	<trip id="motorcycle148" type="motorcycle_motorcycle" depart="370.00" departLane="best" from="29873188#1" to="29895584#0"/>
	<trip id="motorcycle149" type="motorcycle_motorcycle" depart="372.50" departLane="best" from="933255414#1" to="-29895921"/>
	<trip id="motorcycle150" type="motorcycle_motorcycle" depart="375.00" departLane="best" from="933230247#20" to="29895497#9"/>
	<trip id="motorcycle151" type="motorcycle_motorcycle" depart="377.50" departLane="best" from="371051977" to="933114643#3"/>
	<trip id="motorcycle152" type="motorcycle_motorcycle" depart="380.00" departLane="best" from="29867636#1" to="-29895926"/>
	<trip id="motorcycle153" type="motorcycle_motorcycle" depart="382.50" departLane="best" from="-371051998#0" to="29895850#5"/>
	<trip id="motorcycle154" type="motorcycle_motorcycle" depart="385.00" departLane="best" from="371065189#0" to="29896217"/>
	<trip id="motorcycle155" type="motorcycle_motorcycle" depart="387.50" departLane="best" from="371051987#15" to="29312028#2"/>
	<trip id="motorcycle156" type="motorcycle_motorcycle" depart="390.00" departLane="best" from="371051987#11" to="29895734#1"/>
	<trip id="motorcycle157" type="motorcycle_motorcycle" depart="392.50" departLane="best" from="922051265" to="-29895618#1"/>
	<trip id="motorcycle158" type="motorcycle_motorcycle" depart="395.00" departLane="best" from="371052008#5" to="-29896646"/>
	<trip id="motorcycle159" type="motorcycle_motorcycle" depart="397.50" departLane="best" from="1271938602" to="-29896177#3"/>
	<trip id="motorcycle160" type="motorcycle_motorcycle" depart="400.00" departLane="best" from="29868761" to="-29895651#11"/>
	<trip id="motorcycle161" type="motorcycle_motorcycle" depart="402.50" departLane="best" from="-371065186#2" to="-29895852#6"/>
	<trip id="motorcycle162" type="motorcycle_motorcycle" depart="405.00" departLane="best" from="933269865#0" to="-29895879#0"/>
	<trip id="motorcycle163" type="motorcycle_motorcycle" depart="407.50" departLane="best" from="-29870918#11" to="29896317#0"/>
	<trip id="motorcycle164" type="motorcycle_motorcycle" depart="410.00" departLane="best" from="370143451" to="29896661#0"/>
	<trip id="motorcycle165" type="motorcycle_motorcycle" depart="412.50" departLane="best" from="-310184011#4" to="29895933"/>
	<trip id="motorcycle166" type="motorcycle_motorcycle" depart="415.00" departLane="best" from="-29034432" to="-29896177#0"/>
	<trip id="motorcycle167" type="motorcycle_motorcycle" depart="417.50" departLane="best" from="29873048#4" to="-29895584#0"/>
	<trip id="motorcycle168" type="motorcycle_motorcycle" depart="420.00" departLane="best" from="-29873188#1" to="29166752#24"/>
	<trip id="motorcycle169" type="motorcycle_motorcycle" depart="422.50" departLane="best" from="-371065183#0" to="29895734#1"/>
	<trip id="motorcycle170" type="motorcycle_motorcycle" depart="425.00" departLane="best" from="-933251563" to="-370844621#0"/>
	<trip id="motorcycle171" type="motorcycle_motorcycle" depart="427.50" departLane="best" from="371065195#1" to="-29895869"/>
	<trip id="motorcycle172" type="motorcycle_motorcycle" depart="430.00" departLane="best" from="-29857947#0" to="926637237#8"/>
	<trip id="motorcycle173" type="motorcycle_motorcycle" depart="432.50" departLane="best" from="-371065186#15" to="29166752#25"/>
	<trip id="motorcycle174" type="motorcycle_motorcycle" depart="435.00" departLane="best" from="-29853990#6" to="29895727#0"/>
	<trip id="motorcycle175" type="motorcycle_motorcycle" depart="437.50" departLane="best" from="29854316#5" to="-29895850#3"/>
	<trip id="motorcycle176" type="motorcycle_motorcycle" depart="440.00" departLane="best" from="757102090#3" to="-29895580#0"/>
	<trip id="motorcycle177" type="motorcycle_motorcycle" depart="442.50" departLane="best" from="757102091#1" to="-29896211"/>
	<trip id="motorcycle178" type="motorcycle_motorcycle" depart="445.00" departLane="best" from="29858493#1" to="-29895611#1"/>
	<trip id="motorcycle179" type="motorcycle_motorcycle" depart="447.50" departLane="best" from="921930219#3" to="29895682#1"/>
	<trip id="motorcycle180" type="motorcycle_motorcycle" depart="450.00" departLane="best" from="-29857812" to="29896139#0"/>
	<trip id="motorcycle181" type="motorcycle_motorcycle" depart="452.50" departLane="best" from="-933228464" to="29895852#4"/>
	<trip id="motorcycle182" type="motorcycle_motorcycle" depart="455.00" departLane="best" from="933230247#2" to="29896595#3"/>
	<trip id="motorcycle183" type="motorcycle_motorcycle" depart="457.50" departLane="best" from="921930226#18" to="29895912#1"/>
	<trip id="motorcycle184" type="motorcycle_motorcycle" depart="460.00" departLane="best" from="29034195#2" to="369963769"/>
	<trip id="motorcycle185" type="motorcycle_motorcycle" depart="462.50" departLane="best" from="-29032017" to="29895584#0"/>
	<trip id="motorcycle186" type="motorcycle_motorcycle" depart="465.00" departLane="best" from="29032938#4" to="29895759#1"/>
	<trip id="motorcycle187" type="motorcycle_motorcycle" depart="467.50" departLane="best" from="-371065181#5" to="29895733#1"/>
	<trip id="motorcycle188" type="motorcycle_motorcycle" depart="470.00" departLane="best" from="-29034314#0" to="933114642#6"/>
	<trip id="motorcycle189" type="motorcycle_motorcycle" depart="472.50" departLane="best" from="-29031979" to="369963783#1"/>
	<trip id="motorcycle190" type="motorcycle_motorcycle" depart="475.00" departLane="best" from="-29033096" to="-29895812#3"/>
	<trip id="motorcycle191" type="motorcycle_motorcycle" depart="477.50" departLane="best" from="933216701#2" to="29895852#3"/>
	<trip id="motorcycle192" type="motorcycle_motorcycle" depart="480.00" departLane="best" from="-29873138#9" to="926637237#8"/>
	<trip id="motorcycle193" type="motorcycle_motorcycle" depart="482.50" departLane="best" from="-29870873" to="29895661#2"/>
	<trip id="motorcycle194" type="motorcycle_motorcycle" depart="485.00" departLane="best" from="371065197#8" to="-29166752#21"/>
	<trip id="motorcycle195" type="motorcycle_motorcycle" depart="487.50" departLane="best" from="-1214772052#0" to="29895497#19"/>
	<trip id="motorcycle196" type="motorcycle_motorcycle" depart="490.00" departLane="best" from="922051267" to="-29896124#2"/>
	<trip id="motorcycle197" type="motorcycle_motorcycle" depart="492.50" departLane="best" from="29857533#3" to="933114642#4"/>
	<trip id="motorcycle198" type="motorcycle_motorcycle" depart="495.00" departLane="best" from="-370138629#2" to="29896609#2"/>
	<trip id="motorcycle199" type="motorcycle_motorcycle" depart="497.50" departLane="best" from="918320653#8" to="29896629"/>
	<trip id="motorcycle200" type="motorcycle_motorcycle" depart="500.00" departLane="best" from="-29034483#5" to="-369963740"/>
</routes>
