<routes xmlns:xsi="http://www.w3.org/2001/XMLSchema-instance" xsi:noNamespaceSchemaLocation="http://sumo.dlr.de/xsd/routes_file.xsd">
	<vType id="veh_passenger" vClass="passenger"/>
	<trip id="veh0" type="veh_passenger" depart="0.00" departLane="best" from="29875742" to="-29873850"/>
	<trip id="veh1" type="veh_passenger" depart="2.00" departLane="best" from="29031926#0" to="-369963783#1"/>
	<trip id="veh2" type="veh_passenger" depart="4.00" departLane="best" from="29873278" to="29895733#0"/>
	<trip id="veh3" type="veh_passenger" depart="6.00" departLane="best" from="757101429#1" to="29312028#0"/>
	<trip id="veh4" type="veh_passenger" depart="8.00" departLane="best" from="29866587#0" to="-29895812#0"/>
	<trip id="veh5" type="veh_passenger" depart="10.00" departLane="best" from="-371051987#14" to="-29895805#1"/>
	<trip id="veh6" type="veh_passenger" depart="12.00" departLane="best" from="-922051264" to="29895867"/>
	<trip id="veh7" type="veh_passenger" depart="14.00" departLane="best" from="719056970#2" to="29896595#0"/>
	<trip id="veh8" type="veh_passenger" depart="16.00" departLane="best" from="371065189#0" to="29895497#18"/>
	<trip id="veh9" type="veh_passenger" depart="18.00" departLane="best" from="-29873278" to="-29312028#9"/>
	<trip id="veh10" type="veh_passenger" depart="20.00" departLane="best" from="-1305405628#1" to="29895580#0"/>
	<trip id="veh11" type="veh_passenger" depart="22.00" departLane="best" from="29873165" to="29895862"/>
	<trip id="veh12" type="veh_passenger" depart="24.00" departLane="best" from="-370143490#1" to="29895497#8"/>
	<trip id="veh13" type="veh_passenger" depart="26.00" departLane="best" from="918680937#1" to="-29895810#1"/>
	<trip id="veh14" type="veh_passenger" depart="28.00" departLane="best" from="29861240" to="29895804#1"/>
	<trip id="veh15" type="veh_passenger" depart="30.00" departLane="best" from="-934186395" to="-29895584#2"/>
	<trip id="veh16" type="veh_passenger" depart="32.00" departLane="best" from="1305404632#2" to="29896177#2"/>
	<trip id="veh17" type="veh_passenger" depart="34.00" departLane="best" from="29859032" to="29895497#19"/>
	<trip id="veh18" type="veh_passenger" depart="36.00" departLane="best" from="29863000" to="-797841580"/>
	<trip id="veh19" type="veh_passenger" depart="38.00" departLane="best" from="-29869753" to="29895817"/>
	<trip id="veh20" type="veh_passenger" depart="40.00" departLane="best" from="29034269#0" to="-29311996#0"/>
	<trip id="veh21" type="veh_passenger" depart="42.00" departLane="best" from="-310184009#4" to="-29896154#4"/>
	<trip id="veh22" type="veh_passenger" depart="44.00" departLane="best" from="-29853990#1" to="933114642#12"/>
	<trip id="veh23" type="veh_passenger" depart="46.00" departLane="best" from="1305404845#1" to="29896646"/>
	<trip id="veh24" type="veh_passenger" depart="48.00" departLane="best" from="934172687" to="29896139#1"/>
	<trip id="veh25" type="veh_passenger" depart="50.00" departLane="best" from="921989989" to="29895890"/>
	<trip id="veh26" type="veh_passenger" depart="52.00" departLane="best" from="29876546#62" to="-29895651#8"/>
	<trip id="veh27" type="veh_passenger" depart="54.00" departLane="best" from="371065182#1" to="-369963740"/>
	<trip id="veh28" type="veh_passenger" depart="56.00" departLane="best" from="934172698#1" to="29895651#3"/>
	<trip id="veh29" type="veh_passenger" depart="58.00" departLane="best" from="757102089#3" to="29896124#3"/>
	<trip id="veh30" type="veh_passenger" depart="60.00" departLane="best" from="-29872534#1" to="-29896124#2"/>
	<trip id="veh31" type="veh_passenger" depart="62.00" departLane="best" from="921989974" to="-29895584#2"/>
	<trip id="veh32" type="veh_passenger" depart="64.00" departLane="best" from="-29871167#0" to="29895852#3"/>
	<trip id="veh33" type="veh_passenger" depart="66.00" departLane="best" from="29032983#1" to="29896202#0"/>
	<trip id="veh34" type="veh_passenger" depart="68.00" departLane="best" from="1076476224" to="-29895862"/>
	<trip id="veh35" type="veh_passenger" depart="70.00" departLane="best" from="370138578#0" to="-29896177#2"/>
	<trip id="veh36" type="veh_passenger" depart="72.00" departLane="best" from="-818305716" to="-370844532"/>
	<trip id="veh37" type="veh_passenger" depart="74.00" departLane="best" from="-719056970#2" to="-29895924#0"/>
	<trip id="veh38" type="veh_passenger" depart="76.00" departLane="best" from="1043419603#0" to="-29895497#16"/>
	<trip id="veh39" type="veh_passenger" depart="78.00" departLane="best" from="933239101" to="29312028#5"/>
	<trip id="veh40" type="veh_passenger" depart="80.00" departLane="best" from="743154156#1" to="29895812#3"/>
	<trip id="veh41" type="veh_passenger" depart="82.00" departLane="best" from="29871571" to="-29895584#2"/>
	<trip id="veh42" type="veh_passenger" depart="84.00" departLane="best" from="28840476#1" to="29895943#3"/>
	<trip id="veh43" type="veh_passenger" depart="86.00" departLane="best" from="-955267015" to="29896177#1"/>
	<trip id="veh44" type="veh_passenger" depart="88.00" departLane="best" from="29035881" to="29896175#2"/>
	<trip id="veh45" type="veh_passenger" depart="90.00" departLane="best" from="29867636#2" to="-29895611#1"/>
	<trip id="veh46" type="veh_passenger" depart="92.00" departLane="best" from="-371052000#7" to="-29895497#11"/>
	<trip id="veh47" type="veh_passenger" depart="94.00" departLane="best" from="370138637" to="-29896204#0"/>
	<trip id="veh48" type="veh_passenger" depart="96.00" departLane="best" from="-933216704#9" to="-29895618#1"/>
	<trip id="veh49" type="veh_passenger" depart="98.00" departLane="best" from="-370138651#1" to="29895618#1"/>
	<trip id="veh50" type="veh_passenger" depart="100.00" departLane="best" from="29873281#1" to="29895850#0"/>
	<trip id="veh51" type="veh_passenger" depart="102.00" departLane="best" from="29860663" to="-29895850#6"/>
	<trip id="veh52" type="veh_passenger" depart="104.00" departLane="best" from="29855284#0" to="29895497#19"/>
	<trip id="veh53" type="veh_passenger" depart="106.00" departLane="best" from="29035953#1" to="-29895409#5"/>
	<trip id="veh54" type="veh_passenger" depart="108.00" departLane="best" from="370138424#0" to="29895730#0"/>
	<trip id="veh55" type="veh_passenger" depart="110.00" departLane="best" from="818009681#0" to="29895812#1"/>
	<trip id="veh56" type="veh_passenger" depart="112.00" departLane="best" from="-918680933#1" to="-29895812#2"/>
	<trip id="veh57" type="veh_passenger" depart="114.00" departLane="best" from="29033330#14" to="370844621#2"/>
	<trip id="veh58" type="veh_passenger" depart="116.00" departLane="best" from="-921930223#3" to="-29895912#1"/>
	<trip id="veh59" type="veh_passenger" depart="118.00" departLane="best" from="-29034219#1" to="29895682#0"/>
	<trip id="veh60" type="veh_passenger" depart="120.00" departLane="best" from="-29034241#3" to="-29895584#5"/>
	<trip id="veh61" type="veh_passenger" depart="122.00" departLane="best" from="-29720129" to="29895651#1"/>
	<trip id="veh62" type="veh_passenger" depart="124.00" departLane="best" from="-29869699#0" to="-29895651#8"/>
	<trip id="veh63" type="veh_passenger" depart="126.00" departLane="best" from="-29034391#3" to="29896136#0"/>
	<trip id="veh64" type="veh_passenger" depart="128.00" departLane="best" from="719056970#1" to="29896139#0"/>
	<trip id="veh65" type="veh_passenger" depart="130.00" departLane="best" from="-29873212#0" to="933114643#8"/>
	<trip id="veh66" type="veh_passenger" depart="132.00" departLane="best" from="29868944" to="-29895926"/>
	<trip id="veh67" type="veh_passenger" depart="134.00" departLane="best" from="29860368#2" to="-29895618#0"/>
	<trip id="veh68" type="veh_passenger" depart="136.00" departLane="best" from="29873138#1" to="29895409#8"/>
	<trip id="veh69" type="veh_passenger" depart="138.00" departLane="best" from="-29032109#1" to="-29895409#3"/>
	<trip id="veh70" type="veh_passenger" depart="140.00" departLane="best" from="-29873215" to="29895661#0"/>
	<trip id="veh71" type="veh_passenger" depart="142.00" departLane="best" from="-29873054#2" to="-29895912#1"/>
	<trip id="veh72" type="veh_passenger" depart="144.00" departLane="best" from="-370143475" to="-29895862"/>
	<trip id="veh73" type="veh_passenger" depart="146.00" departLane="best" from="-310184012#5" to="29895601"/>
	<trip id="veh74" type="veh_passenger" depart="148.00" departLane="best" from="-29858611" to="29896124#6"/>
	<trip id="veh75" type="veh_passenger" depart="150.00" departLane="best" from="-371065195#2" to="29312028#3"/>
	<trip id="veh76" type="veh_passenger" depart="152.00" departLane="best" from="-29032102#3" to="-29895804#1"/>
	<trip id="veh77" type="veh_passenger" depart="154.00" departLane="best" from="-29872391#0" to="29895850#2"/>
	<trip id="veh78" type="veh_passenger" depart="156.00" departLane="best" from="29032904#6" to="29895651#4"/>
	<trip id="veh79" type="veh_passenger" depart="158.00" departLane="best" from="370143477" to="-29896154#5"/>
	<trip id="veh80" type="veh_passenger" depart="160.00" departLane="best" from="-29713820#11" to="29896175#2"/>
	<trip id="veh81" type="veh_passenger" depart="162.00" departLane="best" from="29034432" to="933114642#11"/>
	<trip id="veh82" type="veh_passenger" depart="164.00" departLane="best" from="-29858328#0" to="29895730#1"/>
	<trip id="veh83" type="veh_passenger" depart="166.00" departLane="best" from="-370138423#3" to="29895409#8"/>
	<trip id="veh84" type="veh_passenger" depart="168.00" departLane="best" from="-29034314#3" to="-29896175#1"/>
	<trip id="veh85" type="veh_passenger" depart="170.00" departLane="best" from="29034201#0" to="-29895734#0"/>
	<trip id="veh86" type="veh_passenger" depart="172.00" departLane="best" from="918320660#3" to="-29895651#4"/>
	<trip id="veh87" type="veh_passenger" depart="174.00" departLane="best" from="371051957#2" to="29312028#1"/>
	<trip id="veh88" type="veh_passenger" depart="176.00" departLane="best" from="757107600#15" to="-29896624#2"/>
	<trip id="veh89" type="veh_passenger" depart="178.00" departLane="best" from="1214772681" to="29896317#0"/>
	<trip id="veh90" type="veh_passenger" depart="180.00" departLane="best" from="-29857533#1" to="933114642#4"/>
	<trip id="veh91" type="veh_passenger" depart="182.00" departLane="best" from="370138670#2" to="29895651#9"/>
	<trip id="veh92" type="veh_passenger" depart="184.00" departLane="best" from="29861240" to="29895661#2"/>
	<trip id="veh93" type="veh_passenger" depart="186.00" departLane="best" from="370143485#0" to="29895497#19"/>
	<trip id="veh94" type="veh_passenger" depart="188.00" departLane="best" from="29719859" to="933114642#6"/>
	<trip id="veh95" type="veh_passenger" depart="190.00" departLane="best" from="-29873188#0" to="-797841580"/>
	<trip id="veh96" type="veh_passenger" depart="192.00" departLane="best" from="29033096" to="370844532"/>
	<trip id="veh97" type="veh_passenger" depart="194.00" departLane="best" from="370138660#2" to="369963805#0"/>
	<trip id="veh98" type="veh_passenger" depart="196.00" departLane="best" from="29872452#0" to="29896595#2"/>
	<trip id="veh99" type="veh_passenger" depart="198.00" departLane="best" from="-29034201#5" to="-915056093"/>
	<trip id="veh100" type="veh_passenger" depart="200.00" departLane="best" from="-370138515#0" to="-29895759#1"/>
	<trip id="veh101" type="veh_passenger" depart="202.00" departLane="best" from="-370138515#1" to="29895584#8"/>
	<trip id="veh102" type="veh_passenger" depart="204.00" departLane="best" from="922051269" to="29166752#23"/>
	<trip id="veh103" type="veh_passenger" depart="206.00" departLane="best" from="29034486" to="369963805#1"/>
	<trip id="veh104" type="veh_passenger" depart="208.00" departLane="best" from="29713820#1" to="29896609#0"/>
	<trip id="veh105" type="veh_passenger" depart="210.00" departLane="best" from="-371052012#1" to="-29895869"/>
	<trip id="veh106" type="veh_passenger" depart="212.00" departLane="best" from="29033330#14" to="-29896124#7"/>
	<trip id="veh107" type="veh_passenger" depart="214.00" departLane="best" from="29857744" to="29895852#0"/>
	<trip id="veh108" type="veh_passenger" depart="216.00" departLane="best" from="933216692" to="-29312028#10"/>
	<trip id="veh109" type="veh_passenger" depart="218.00" departLane="best" from="-933269865#5" to="-29896175#1"/>
	<trip id="veh110" type="veh_passenger" depart="220.00" departLane="best" from="370138679#1" to="915056093"/>
	<trip id="veh111" type="veh_passenger" depart="222.00" departLane="best" from="818009681#2" to="29895812#1"/>
	<trip id="veh112" type="veh_passenger" depart="224.00" departLane="best" from="933225164#2" to="-29896136#1"/>
	<trip id="veh113" type="veh_passenger" depart="226.00" departLane="best" from="757102090#1" to="-29896125#2"/>
	<trip id="veh114" type="veh_passenger" depart="228.00" departLane="best" from="29032102#8" to="29895879#3"/>
	<trip id="veh115" type="veh_passenger" depart="230.00" departLane="best" from="757107613#2" to="29896646"/>
	<trip id="veh116" type="veh_passenger" depart="232.00" departLane="best" from="-370138497" to="-29895651#7"/>
	<trip id="veh117" type="veh_passenger" depart="234.00" departLane="best" from="29031980#0" to="29895720#0"/>
	<trip id="veh118" type="veh_passenger" depart="236.00" departLane="best" from="-29866635#0" to="29896609#0"/>
	<trip id="veh119" type="veh_passenger" depart="238.00" departLane="best" from="1123505317" to="29896204#1"/>
	<trip id="veh120" type="veh_passenger" depart="240.00" departLane="best" from="-371065197#7" to="-29896204#0"/>
	<trip id="veh121" type="veh_passenger" depart="242.00" departLane="best" from="933239099" to="-29896154#5"/>
	<trip id="veh122" type="veh_passenger" depart="244.00" departLane="best" from="29034483#1" to="-29895651#0"/>
	<trip id="veh123" type="veh_passenger" depart="246.00" departLane="best" from="29034328#7" to="-29896124#6"/>
	<trip id="veh124" type="veh_passenger" depart="248.00" departLane="best" from="-1218172594#2" to="29895575#0"/>
	<trip id="veh125" type="veh_passenger" depart="250.00" departLane="best" from="1204804431#0" to="29895867"/>
	<trip id="veh126" type="veh_passenger" depart="252.00" departLane="best" from="29861194#0" to="-29895850#5"/>
	<trip id="veh127" type="veh_passenger" depart="254.00" departLane="best" from="-29858987#5" to="-29895817"/>
	<trip id="veh128" type="veh_passenger" depart="256.00" departLane="best" from="29031931#2" to="29312028#4"/>
	<trip id="veh129" type="veh_passenger" depart="258.00" departLane="best" from="29872077" to="29166752#22"/>
	<trip id="veh130" type="veh_passenger" depart="260.00" departLane="best" from="-29855485" to="-29895497#11"/>
	<trip id="veh131" type="veh_passenger" depart="262.00" departLane="best" from="-29863000" to="29895575#0"/>
	<trip id="veh132" type="veh_passenger" depart="264.00" departLane="best" from="85213314#0" to="-29312028#4"/>
	<trip id="veh133" type="veh_passenger" depart="266.00" departLane="best" from="310184011#2" to="-29896204#0"/>
	<trip id="veh134" type="veh_passenger" depart="268.00" departLane="best" from="29873165" to="-29896637"/>
	<trip id="veh135" type="veh_passenger" depart="270.00" departLane="best" from="-921989982" to="-29896595#3"/>
	<trip id="veh136" type="veh_passenger" depart="272.00" departLane="best" from="29719775" to="933114642#5"/>
	<trip id="veh137" type="veh_passenger" depart="274.00" departLane="best" from="-371051968" to="29895670"/>
	<trip id="veh138" type="veh_passenger" depart="276.00" departLane="best" from="29871571" to="-933123785"/>
	<trip id="veh139" type="veh_passenger" depart="278.00" departLane="best" from="-1305405767" to="-29166752#20"/>
	<trip id="veh140" type="veh_passenger" depart="280.00" departLane="best" from="29032965#0" to="-29312028#6"/>
	<trip id="veh141" type="veh_passenger" depart="282.00" departLane="best" from="-370138658#0" to="370844621#0"/>
	<trip id="veh142" type="veh_passenger" depart="284.00" departLane="best" from="29855495" to="-29895618#0"/>
	<trip id="veh143" type="veh_passenger" depart="286.00" departLane="best" from="-29858493#1" to="-29896154#7"/>
	<trip id="veh144" type="veh_passenger" depart="288.00" departLane="best" from="370143451" to="29895879#3"/>
	<trip id="veh145" type="veh_passenger" depart="290.00" departLane="best" from="-934139767#0" to="-29895727#2"/>
	<trip id="veh146" type="veh_passenger" depart="292.00" departLane="best" from="-29859239" to="-29896136#2"/>
	<trip id="veh147" type="veh_passenger" depart="294.00" departLane="best" from="-310184011#4" to="-29896175#1"/>
	<trip id="veh148" type="veh_passenger" depart="296.00" departLane="best" from="29858419" to="29895497#17"/>
	<trip id="veh149" type="veh_passenger" depart="298.00" departLane="best" from="371051978" to="-29895651#10"/>
	<trip id="veh150" type="veh_passenger" depart="300.00" departLane="best" from="933225164#7" to="29895651#7"/>
	<trip id="veh151" type="veh_passenger" depart="302.00" departLane="best" from="-1043419602" to="-29895884"/>
	<trip id="veh152" type="veh_passenger" depart="304.00" departLane="best" from="-29873212#2" to="29896204#1"/>
	<trip id="veh153" type="veh_passenger" depart="306.00" departLane="best" from="-370143461" to="-29895727#1"/>
	<trip id="veh154" type="veh_passenger" depart="308.00" departLane="best" from="-310184007#5" to="-29896595#2"/>
	<trip id="veh155" type="veh_passenger" depart="310.00" departLane="best" from="29719904" to="29312028#4"/>
	<trip id="veh156" type="veh_passenger" depart="312.00" departLane="best" from="371052000#20" to="29895759#1"/>
	<trip id="veh157" type="veh_passenger" depart="314.00" departLane="best" from="921989960" to="29896136#1"/>
	<trip id="veh158" type="veh_passenger" depart="316.00" departLane="best" from="-29719775" to="933114643#2"/>
	<trip id="veh159" type="veh_passenger" depart="318.00" departLane="best" from="-29857868#1" to="-29895409#6"/>
	<trip id="veh160" type="veh_passenger" depart="320.00" departLane="best" from="29854711#1" to="-29896175#0"/>
	<trip id="veh161" type="veh_passenger" depart="322.00" departLane="best" from="29858627" to="29895567#0"/>
	<trip id="veh162" type="veh_passenger" depart="324.00" departLane="best" from="933216704#9" to="29896154#6"/>
	<trip id="veh163" type="veh_passenger" depart="326.00" departLane="best" from="1195562746#2" to="29896595#2"/>
	<trip id="veh164" type="veh_passenger" depart="328.00" departLane="best" from="371065184" to="-29895611#0"/>
	<trip id="veh165" type="veh_passenger" depart="330.00" departLane="best" from="29873138#6" to="29895879#0"/>
	<trip id="veh166" type="veh_passenger" depart="332.00" departLane="best" from="-921989960" to="-29895580#0"/>
	<trip id="veh167" type="veh_passenger" depart="334.00" departLane="best" from="-370138579#0" to="29312028#3"/>
	<trip id="veh168" type="veh_passenger" depart="336.00" departLane="best" from="-371051987#7" to="29895682#0"/>
	<trip id="veh169" type="veh_passenger" depart="338.00" departLane="best" from="921989964" to="933114642#12"/>
	<trip id="veh170" type="veh_passenger" depart="340.00" departLane="best" from="370138676#1" to="29895943#3"/>
	<trip id="veh171" type="veh_passenger" depart="342.00" departLane="best" from="957544354" to="-29895852#1"/>
	<trip id="veh172" type="veh_passenger" depart="344.00" departLane="best" from="932761288#2" to="-369963764"/>
	<trip id="veh173" type="veh_passenger" depart="346.00" departLane="best" from="370138499#1" to="29166752#22"/>
	<trip id="veh174" type="veh_passenger" depart="348.00" departLane="best" from="370143458" to="29896138"/>
	<trip id="veh175" type="veh_passenger" depart="350.00" departLane="best" from="-29872499#5" to="29895651#10"/>
	<trip id="veh176" type="veh_passenger" depart="352.00" departLane="best" from="29855502#0" to="-29895733#0"/>
	<trip id="veh177" type="veh_passenger" depart="354.00" departLane="best" from="-370138658#0" to="-29895943#2"/>
	<trip id="veh178" type="veh_passenger" depart="356.00" departLane="best" from="-29854347#2" to="29896595#3"/>
	<trip id="veh179" type="veh_passenger" depart="358.00" departLane="best" from="370138651#3" to="933114643#1"/>
	<trip id="veh180" type="veh_passenger" depart="360.00" departLane="best" from="-29857868#1" to="-29895804#2"/>
	<trip id="veh181" type="veh_passenger" depart="362.00" departLane="best" from="933251563" to="29895682#1"/>
	<trip id="veh182" type="veh_passenger" depart="364.00" departLane="best" from="-370138605#1" to="-29895661#0"/>
	<trip id="veh183" type="veh_passenger" depart="366.00" departLane="best" from="757102090#1" to="-29895497#14"/>
	<trip id="veh184" type="veh_passenger" depart="368.00" departLane="best" from="361899458#5" to="29312028#2"/>
	<trip id="veh185" type="veh_passenger" depart="370.00" departLane="best" from="757101446#5" to="933114643#11"/>
	<trip id="veh186" type="veh_passenger" depart="372.00" departLane="best" from="1195562746#3" to="933123787#3"/>
	<trip id="veh187" type="veh_passenger" depart="374.00" departLane="best" from="29857533#2" to="29895934#1"/>
	<trip id="veh188" type="veh_passenger" depart="376.00" departLane="best" from="29869948#0" to="29896154#7"/>
	<trip id="veh189" type="veh_passenger" depart="378.00" departLane="best" from="29871380" to="-29896154#4"/>
	<trip id="veh190" type="veh_passenger" depart="380.00" departLane="best" from="-370138650" to="933114643#8"/>
	<trip id="veh191" type="veh_passenger" depart="382.00" departLane="best" from="-29720331#1" to="-29896661#1"/>
	<trip id="veh192" type="veh_passenger" depart="384.00" departLane="best" from="-371065186#6" to="29312028#3"/>
	<trip id="veh193" type="veh_passenger" depart="386.00" departLane="best" from="-933212337" to="29895584#5"/>
	<trip id="veh194" type="veh_passenger" depart="388.00" departLane="best" from="370138644#0" to="29895912#0"/>
	<trip id="veh195" type="veh_passenger" depart="390.00" departLane="best" from="-371051980" to="-29895677#1"/>
	<trip id="veh196" type="veh_passenger" depart="392.00" departLane="best" from="-371051988#0" to="-29895733#0"/>
	<trip id="veh197" type="veh_passenger" depart="394.00" departLane="best" from="-310184007#5" to="-29895497#24"/>
	<trip id="veh198" type="veh_passenger" depart="396.00" departLane="best" from="-921989941#0" to="29895651#7"/>
	<trip id="veh199" type="veh_passenger" depart="398.00" departLane="best" from="-921930200" to="-29896136#1"/>
	<trip id="veh200" type="veh_passenger" depart="400.00" departLane="best" from="-957544352" to="933114643#11"/>

</routes>
