<routes xmlns:xsi="http://www.w3.org/2001/XMLSchema-instance" xsi:noNamespaceSchemaLocation="http://sumo.dlr.de/xsd/routes_file.xsd">
	<vType id="motorcycle_motorcycle" vClass="motorcycle"/>
	<trip id="motorcycle0" type="motorcycle_motorcycle" depart="0.00" departLane="best" from="-29875672#0" to="29873772#5"/>
	<trip id="motorcycle1" type="motorcycle_motorcycle" depart="1.00" departLane="best" from="-29858987#0" to="29895497#24"/>
	<trip id="motorcycle2" type="motorcycle_motorcycle" depart="2.00" departLane="best" from="29871199" to="-29895497#24"/>
	<trip id="motorcycle3" type="motorcycle_motorcycle" depart="3.00" departLane="best" from="921989977#2" to="-29896138"/>
	<trip id="motorcycle4" type="motorcycle_motorcycle" depart="4.00" departLane="best" from="29858436#0" to="29896138"/>
	<trip id="motorcycle5" type="motorcycle_motorcycle" depart="5.00" departLane="best" from="918680935" to="-29895497#23"/>
	<trip id="motorcycle6" type="motorcycle_motorcycle" depart="6.00" departLane="best" from="29872403#0" to="-29896138"/>
	<trip id="motorcycle7" type="motorcycle_motorcycle" depart="7.00" departLane="best" from="-29719803#3" to="29896138"/>
	<trip id="motorcycle8" type="motorcycle_motorcycle" depart="8.00" departLane="best" from="1305387248" to="-29895497#24"/>
	<trip id="motorcycle9" type="motorcycle_motorcycle" depart="9.00" departLane="best" from="29713820#8" to="-29896138"/>
	<trip id="motorcycle10" type="motorcycle_motorcycle" depart="10.00" departLane="best" from="-29876546#63" to="-29896138"/>
	<trip id="motorcycle11" type="motorcycle_motorcycle" depart="11.00" departLane="best" from="921989943#1" to="29895497#23"/>
	<trip id="motorcycle12" type="motorcycle_motorcycle" depart="12.00" departLane="best" from="-29855261#2" to="-29895497#24"/>
	<trip id="motorcycle13" type="motorcycle_motorcycle" depart="13.00" departLane="best" from="-29869465" to="-29895497#24"/>
	<trip id="motorcycle14" type="motorcycle_motorcycle" depart="14.00" departLane="best" from="-932761298" to="29896138"/>
	<trip id="motorcycle15" type="motorcycle_motorcycle" depart="15.00" departLane="best" from="29720405#1" to="-29895497#24"/>
	<trip id="motorcycle16" type="motorcycle_motorcycle" depart="16.00" departLane="best" from="-371051987#4" to="-29896138"/>
	<trip id="motorcycle17" type="motorcycle_motorcycle" depart="17.00" departLane="best" from="29873203" to="-29896138"/>
	<trip id="motorcycle18" type="motorcycle_motorcycle" depart="18.00" departLane="best" from="29857947#2" to="29896138"/>
	<trip id="motorcycle19" type="motorcycle_motorcycle" depart="19.00" departLane="best" from="-921990002#1" to="29896138"/>
	<trip id="motorcycle20" type="motorcycle_motorcycle" depart="20.00" departLane="best" from="29855502#1" to="29895497#23"/>
	<trip id="motorcycle21" type="motorcycle_motorcycle" depart="21.00" departLane="best" from="921989977#2" to="-29895497#23"/>
	<trip id="motorcycle22" type="motorcycle_motorcycle" depart="22.00" departLane="best" from="371052000#13" to="-29895497#24"/>
	<trip id="motorcycle23" type="motorcycle_motorcycle" depart="23.00" departLane="best" from="-371051968" to="29896138"/>
	<trip id="motorcycle24" type="motorcycle_motorcycle" depart="24.00" departLane="best" from="29859196" to="-29896138"/>
	<trip id="motorcycle25" type="motorcycle_motorcycle" depart="25.00" departLane="best" from="29861194#0" to="29896138"/>
	<trip id="motorcycle26" type="motorcycle_motorcycle" depart="26.00" departLane="best" from="-371052000#19" to="29895497#24"/>
	<trip id="motorcycle27" type="motorcycle_motorcycle" depart="27.00" departLane="best" from="921930226#7" to="29895497#23"/>
	<trip id="motorcycle28" type="motorcycle_motorcycle" depart="28.00" departLane="best" from="29869498#4" to="-29895497#24"/>
	<trip id="motorcycle29" type="motorcycle_motorcycle" depart="29.00" departLane="best" from="29873159" to="-29895497#24"/>
	<trip id="motorcycle30" type="motorcycle_motorcycle" depart="30.00" departLane="best" from="757101430#5" to="29895497#23"/>
	<trip id="motorcycle31" type="motorcycle_motorcycle" depart="31.00" departLane="best" from="759565133#2" to="29896138"/>
	<trip id="motorcycle32" type="motorcycle_motorcycle" depart="32.00" departLane="best" from="371052004#2" to="-29896138"/>
	<trip id="motorcycle33" type="motorcycle_motorcycle" depart="33.00" departLane="best" from="29854369#1" to="29896138"/>
	<trip id="motorcycle34" type="motorcycle_motorcycle" depart="34.00" departLane="best" from="29873138#5" to="-29895497#24"/>
	<trip id="motorcycle35" type="motorcycle_motorcycle" depart="35.00" departLane="best" from="29719836#1" to="29895497#23"/>
	<trip id="motorcycle36" type="motorcycle_motorcycle" depart="36.00" departLane="best" from="-29855122" to="-29895497#24"/>
	<trip id="motorcycle37" type="motorcycle_motorcycle" depart="37.00" departLane="best" from="29871899#3" to="-29896138"/>
	<trip id="motorcycle38" type="motorcycle_motorcycle" depart="38.00" departLane="best" from="-29719743" to="-29896138"/>
	<trip id="motorcycle39" type="motorcycle_motorcycle" depart="39.00" departLane="best" from="371051984" to="-29895497#24"/>
	<trip id="motorcycle40" type="motorcycle_motorcycle" depart="40.00" departLane="best" from="29871400" to="-29895497#24"/>
	<trip id="motorcycle41" type="motorcycle_motorcycle" depart="41.00" departLane="best" from="-371051983" to="29895497#23"/>
	<trip id="motorcycle42" type="motorcycle_motorcycle" depart="42.00" departLane="best" from="371051994#1" to="29895497#23"/>
	<trip id="motorcycle43" type="motorcycle_motorcycle" depart="43.00" departLane="best" from="-921989993" to="29896138"/>
	<trip id="motorcycle44" type="motorcycle_motorcycle" depart="44.00" departLane="best" from="757102090#2" to="29896138"/>
	<trip id="motorcycle45" type="motorcycle_motorcycle" depart="45.00" departLane="best" from="-757102098#1" to="29895497#24"/>
	<trip id="motorcycle46" type="motorcycle_motorcycle" depart="46.00" departLane="best" from="921989939#1" to="29895497#23"/>
	<trip id="motorcycle47" type="motorcycle_motorcycle" depart="47.00" departLane="best" from="29858987#1" to="29895497#23"/>
	<trip id="motorcycle48" type="motorcycle_motorcycle" depart="48.00" departLane="best" from="29873157#3" to="-29895497#24"/>
	<trip id="motorcycle49" type="motorcycle_motorcycle" depart="49.00" departLane="best" from="-29857735#3" to="29895497#24"/>
	<trip id="motorcycle50" type="motorcycle_motorcycle" depart="50.00" departLane="best" from="-29854316#0" to="29895497#23"/>
	<trip id="motorcycle51" type="motorcycle_motorcycle" depart="51.00" departLane="best" from="29854347#1" to="29895497#23"/>
	<trip id="motorcycle52" type="motorcycle_motorcycle" depart="52.00" departLane="best" from="-29719928#0" to="29896138"/>
	<trip id="motorcycle53" type="motorcycle_motorcycle" depart="53.00" departLane="best" from="29873188#2" to="29896138"/>
	<trip id="motorcycle54" type="motorcycle_motorcycle" depart="54.00" departLane="best" from="29871357" to="-29895497#23"/>
	<trip id="motorcycle55" type="motorcycle_motorcycle" depart="55.00" departLane="best" from="921930226#9" to="29895497#23"/>
	<trip id="motorcycle56" type="motorcycle_motorcycle" depart="56.00" departLane="best" from="-29853864" to="-29896138"/>
	<trip id="motorcycle57" type="motorcycle_motorcycle" depart="57.00" departLane="best" from="29873134#9" to="29895497#23"/>
	<trip id="motorcycle58" type="motorcycle_motorcycle" depart="58.00" departLane="best" from="-29871225" to="29895497#24"/>
	<trip id="motorcycle59" type="motorcycle_motorcycle" depart="59.00" departLane="best" from="29862359#0" to="29895497#24"/>
	<trip id="motorcycle60" type="motorcycle_motorcycle" depart="60.00" departLane="best" from="-29853840#0" to="29895497#23"/>
	<trip id="motorcycle61" type="motorcycle_motorcycle" depart="61.00" departLane="best" from="-29853818#1" to="29896138"/>
	<trip id="motorcycle62" type="motorcycle_motorcycle" depart="62.00" departLane="best" from="918680916#2" to="29895497#23"/>
	<trip id="motorcycle63" type="motorcycle_motorcycle" depart="63.00" departLane="best" from="-29855502#1" to="-29895497#23"/>
	<trip id="motorcycle64" type="motorcycle_motorcycle" depart="64.00" departLane="best" from="29720479#0" to="29895497#23"/>
	<trip id="motorcycle65" type="motorcycle_motorcycle" depart="65.00" departLane="best" from="-29857761#2" to="-29895497#24"/>
	<trip id="motorcycle66" type="motorcycle_motorcycle" depart="66.00" departLane="best" from="-29855261#6" to="-29896138"/>
	<trip id="motorcycle67" type="motorcycle_motorcycle" depart="67.00" departLane="best" from="-932761300" to="-29895497#23"/>
	<trip id="motorcycle68" type="motorcycle_motorcycle" depart="68.00" departLane="best" from="-29854711#2" to="-29895497#24"/>
	<trip id="motorcycle69" type="motorcycle_motorcycle" depart="69.00" departLane="best" from="29871250" to="-29895497#23"/>
	<trip id="motorcycle70" type="motorcycle_motorcycle" depart="70.00" departLane="best" from="932761288#4" to="29896138"/>
	<trip id="motorcycle71" type="motorcycle_motorcycle" depart="71.00" departLane="best" from="-29033330#2" to="-29895497#24"/>
	<trip id="motorcycle72" type="motorcycle_motorcycle" depart="72.00" departLane="best" from="921930226#11" to="-29895497#24"/>
	<trip id="motorcycle73" type="motorcycle_motorcycle" depart="73.00" departLane="best" from="29720337#2" to="29895497#24"/>
	<trip id="motorcycle74" type="motorcycle_motorcycle" depart="74.00" departLane="best" from="29873212#2" to="-29895497#23"/>
	<trip id="motorcycle75" type="motorcycle_motorcycle" depart="75.00" departLane="best" from="29719803#4" to="29895497#23"/>
	<trip id="motorcycle76" type="motorcycle_motorcycle" depart="76.00" departLane="best" from="-29854622#2" to="-29895497#23"/>
	<trip id="motorcycle77" type="motorcycle_motorcycle" depart="77.00" departLane="best" from="921930226#18" to="-29895497#24"/>
	<trip id="motorcycle78" type="motorcycle_motorcycle" depart="78.00" departLane="best" from="29720337#0" to="-29896138"/>
	<trip id="motorcycle79" type="motorcycle_motorcycle" depart="79.00" departLane="best" from="-933269854" to="-29895497#23"/>
	<trip id="motorcycle80" type="motorcycle_motorcycle" depart="80.00" departLane="best" from="-371051978" to="-29895497#24"/>
	<trip id="motorcycle81" type="motorcycle_motorcycle" depart="81.00" departLane="best" from="-371052000#25" to="29895497#23"/>
	<trip id="motorcycle82" type="motorcycle_motorcycle" depart="82.00" departLane="best" from="757102089#12" to="29895497#23"/>
	<trip id="motorcycle83" type="motorcycle_motorcycle" depart="83.00" departLane="best" from="-921930212" to="-29896138"/>
	<trip id="motorcycle84" type="motorcycle_motorcycle" depart="84.00" departLane="best" from="29871625#0" to="-29896138"/>
	<trip id="motorcycle85" type="motorcycle_motorcycle" depart="85.00" departLane="best" from="29854385" to="-29895497#24"/>
	<trip id="motorcycle86" type="motorcycle_motorcycle" depart="86.00" departLane="best" from="-29857373#0" to="-29895497#23"/>
	<trip id="motorcycle87" type="motorcycle_motorcycle" depart="87.00" departLane="best" from="371051968" to="-29895497#23"/>
	<trip id="motorcycle88" type="motorcycle_motorcycle" depart="88.00" departLane="best" from="-29870789" to="29896138"/>
	<trip id="motorcycle89" type="motorcycle_motorcycle" depart="89.00" departLane="best" from="29857573#1" to="29896138"/>
	<trip id="motorcycle90" type="motorcycle_motorcycle" depart="90.00" departLane="best" from="29854776#1" to="29895497#23"/>
	<trip id="motorcycle91" type="motorcycle_motorcycle" depart="91.00" departLane="best" from="-29869753" to="29895497#23"/>
	<trip id="motorcycle92" type="motorcycle_motorcycle" depart="92.00" departLane="best" from="-29853872" to="-29895497#23"/>
	<trip id="motorcycle93" type="motorcycle_motorcycle" depart="93.00" departLane="best" from="-29855502#1" to="29895497#23"/>
	<trip id="motorcycle94" type="motorcycle_motorcycle" depart="94.00" departLane="best" from="29859173#2" to="-29895497#23"/>
	<trip id="motorcycle95" type="motorcycle_motorcycle" depart="95.00" departLane="best" from="-29853953" to="29895497#24"/>
	<trip id="motorcycle96" type="motorcycle_motorcycle" depart="96.00" departLane="best" from="-29871492#1" to="29895497#24"/>
	<trip id="motorcycle97" type="motorcycle_motorcycle" depart="97.00" departLane="best" from="29873157#2" to="29896138"/>
	<trip id="motorcycle98" type="motorcycle_motorcycle" depart="98.00" departLane="best" from="29858493#3" to="29895497#24"/>
	<trip id="motorcycle99" type="motorcycle_motorcycle" depart="99.00" departLane="best" from="371051961" to="-29895497#23"/>
	<trip id="motorcycle100" type="motorcycle_motorcycle" depart="100.00" departLane="best" from="-29856268" to="29895497#23"/>
	<trip id="motorcycle101" type="motorcycle_motorcycle" depart="110.00" departLane="best" from="-370528741#2" to="-29893583#1"/>
	<trip id="motorcycle102" type="motorcycle_motorcycle" depart="120.00" departLane="best" from="918314352#6" to="918117101#12"/>
	<trip id="motorcycle103" type="motorcycle_motorcycle" depart="130.00" departLane="best" from="-371068089" to="327915782"/>
	<trip id="motorcycle104" type="motorcycle_motorcycle" depart="140.00" departLane="best" from="915334981#6" to="371068189"/>
	<trip id="motorcycle105" type="motorcycle_motorcycle" depart="150.00" departLane="best" from="934329904#3" to="370845487#11"/>
	<trip id="motorcycle106" type="motorcycle_motorcycle" depart="160.00" departLane="best" from="933889025" to="-29876542#1"/>
	<trip id="motorcycle107" type="motorcycle_motorcycle" depart="170.00" departLane="best" from="922027876" to="743167218#0"/>
	<trip id="motorcycle108" type="motorcycle_motorcycle" depart="180.00" departLane="best" from="370844208#9" to="310182443#20"/>
	<trip id="motorcycle109" type="motorcycle_motorcycle" depart="190.00" departLane="best" from="-1115130312" to="-921147345#1"/>
	<trip id="motorcycle110" type="motorcycle_motorcycle" depart="200.00" departLane="best" from="371317917" to="-371293335#9"/>
	<trip id="motorcycle111" type="motorcycle_motorcycle" depart="210.00" departLane="best" from="371063836#1" to="-28937217#7"/>
	<trip id="motorcycle112" type="motorcycle_motorcycle" depart="220.00" departLane="best" from="29896136#2" to="-923588806"/>
	<trip id="motorcycle113" type="motorcycle_motorcycle" depart="230.00" departLane="best" from="-370669831#0" to="-29710486#2"/>
	<trip id="motorcycle114" type="motorcycle_motorcycle" depart="240.00" departLane="best" from="-370150334#4" to="370844094#1"/>
	<trip id="motorcycle115" type="motorcycle_motorcycle" depart="250.00" departLane="best" from="371318409" to="-29711552"/>
	<trip id="motorcycle116" type="motorcycle_motorcycle" depart="260.00" departLane="best" from="-310183523#0" to="917398379#5"/>
	<trip id="motorcycle117" type="motorcycle_motorcycle" depart="270.00" departLane="best" from="-915001575" to="957548278#1"/>
	<trip id="motorcycle118" type="motorcycle_motorcycle" depart="280.00" departLane="best" from="743125631#3" to="-369963797#1"/>
	<trip id="motorcycle119" type="motorcycle_motorcycle" depart="290.00" departLane="best" from="933858741" to="926533989"/>
	<trip id="motorcycle120" type="motorcycle_motorcycle" depart="300.00" departLane="best" from="-1065839213" to="-913056190#0"/>
	<trip id="motorcycle121" type="motorcycle_motorcycle" depart="310.00" departLane="best" from="-370155170#2" to="918320653#8"/>
	<trip id="motorcycle122" type="motorcycle_motorcycle" depart="320.00" departLane="best" from="915349969" to="915001616#14"/>
	<trip id="motorcycle123" type="motorcycle_motorcycle" depart="330.00" departLane="best" from="-930969137#0" to="310066060#22"/>
	<trip id="motorcycle124" type="motorcycle_motorcycle" depart="340.00" departLane="best" from="242832314#11" to="-29031437#0"/>
	<trip id="motorcycle125" type="motorcycle_motorcycle" depart="350.00" departLane="best" from="-381163039#0" to="915060974#0"/>
	<trip id="motorcycle126" type="motorcycle_motorcycle" depart="360.00" departLane="best" from="371293207#1" to="371076055#0"/>
	<trip id="motorcycle127" type="motorcycle_motorcycle" depart="370.00" departLane="best" from="-370531701#3" to="-370817939#2"/>
	<trip id="motorcycle128" type="motorcycle_motorcycle" depart="380.00" departLane="best" from="-370809925" to="-371293341#3"/>
	<trip id="motorcycle129" type="motorcycle_motorcycle" depart="390.00" departLane="best" from="921930226#7" to="455687790#0"/>
	<trip id="motorcycle130" type="motorcycle_motorcycle" depart="400.00" departLane="best" from="-369963745" to="926171621#0"/>
	<trip id="motorcycle131" type="motorcycle_motorcycle" depart="410.00" departLane="best" from="913056158#1" to="933228462"/>
	<trip id="motorcycle132" type="motorcycle_motorcycle" depart="420.00" departLane="best" from="-370669785#2" to="-913504073"/>
	<trip id="motorcycle133" type="motorcycle_motorcycle" depart="430.00" departLane="best" from="370809102#0" to="-926171608#25"/>
	<trip id="motorcycle134" type="motorcycle_motorcycle" depart="440.00" departLane="best" from="371293335#7" to="926534049#2"/>
	<trip id="motorcycle135" type="motorcycle_motorcycle" depart="450.00" departLane="best" from="370844508" to="-29549730#0"/>
	<trip id="motorcycle136" type="motorcycle_motorcycle" depart="460.00" departLane="best" from="-29317790#1" to="917687491"/>
	<trip id="motorcycle137" type="motorcycle_motorcycle" depart="470.00" departLane="best" from="-371299912#1" to="922106549#9"/>
	<trip id="motorcycle138" type="motorcycle_motorcycle" depart="480.00" departLane="best" from="-225879197#0" to="-370844447#1"/>
	<trip id="motorcycle139" type="motorcycle_motorcycle" depart="490.00" departLane="best" from="932347854#0" to="-29857761#1"/>
	<trip id="motorcycle140" type="motorcycle_motorcycle" depart="500.00" departLane="best" from="-921733175" to="225880672#1"/>
	<trip id="motorcycle141" type="motorcycle_motorcycle" depart="510.00" departLane="best" from="370678202" to="370844678#0"/>
	<trip id="motorcycle142" type="motorcycle_motorcycle" depart="520.00" departLane="best" from="1316316210" to="29059487#8"/>
	<trip id="motorcycle143" type="motorcycle_motorcycle" depart="530.00" departLane="best" from="29031970#5" to="933756178"/>
	<trip id="motorcycle144" type="motorcycle_motorcycle" depart="540.00" departLane="best" from="933319378#0" to="-921661842"/>
	<trip id="motorcycle145" type="motorcycle_motorcycle" depart="550.00" departLane="best" from="-912541668" to="370694504"/>
	<trip id="motorcycle146" type="motorcycle_motorcycle" depart="560.00" departLane="best" from="-919079114#6" to="-29853872"/>
	<trip id="motorcycle147" type="motorcycle_motorcycle" depart="570.00" departLane="best" from="-371065186#9" to="-370823736#0"/>
	<trip id="motorcycle148" type="motorcycle_motorcycle" depart="580.00" departLane="best" from="918648168#1" to="924636200#0"/>
	<trip id="motorcycle149" type="motorcycle_motorcycle" depart="590.00" departLane="best" from="29854805#6" to="-369963814#0"/>
	<trip id="motorcycle150" type="motorcycle_motorcycle" depart="600.00" departLane="best" from="29058879#1" to="-370816817"/>
	<trip id="motorcycle151" type="motorcycle_motorcycle" depart="610.00" departLane="best" from="371308366#2" to="-933216704#22"/>
	<trip id="motorcycle152" type="motorcycle_motorcycle" depart="620.00" departLane="best" from="29077898#19" to="-370694953#10"/>
	<trip id="motorcycle153" type="motorcycle_motorcycle" depart="630.00" departLane="best" from="371317842#7" to="-225758617#2"/>
	<trip id="motorcycle154" type="motorcycle_motorcycle" depart="640.00" departLane="best" from="-29873675#0" to="-370823534"/>
	<trip id="motorcycle155" type="motorcycle_motorcycle" depart="650.00" departLane="best" from="914928518" to="-370674309#3"/>
	<trip id="motorcycle156" type="motorcycle_motorcycle" depart="660.00" departLane="best" from="-370844261#1" to="-915473887"/>
	<trip id="motorcycle157" type="motorcycle_motorcycle" depart="670.00" departLane="best" from="29905970#15" to="-370531672#8"/>
	<trip id="motorcycle158" type="motorcycle_motorcycle" depart="680.00" departLane="best" from="310054606#4" to="-917362303"/>
	<trip id="motorcycle159" type="motorcycle_motorcycle" depart="690.00" departLane="best" from="29906808#3" to="-921733235"/>
	<trip id="motorcycle160" type="motorcycle_motorcycle" depart="700.00" departLane="best" from="-856494132#0" to="927680289"/>
	<trip id="motorcycle161" type="motorcycle_motorcycle" depart="710.00" departLane="best" from="926179962#13" to="-371051992#2"/>
	<trip id="motorcycle162" type="motorcycle_motorcycle" depart="720.00" departLane="best" from="924747193#21" to="29871250"/>
	<trip id="motorcycle163" type="motorcycle_motorcycle" depart="730.00" departLane="best" from="-369798530#0" to="-914564926#2"/>
	<trip id="motorcycle164" type="motorcycle_motorcycle" depart="740.00" departLane="best" from="-370818030#1" to="921310324"/>
	<trip id="motorcycle165" type="motorcycle_motorcycle" depart="750.00" departLane="best" from="-29892153" to="-310058411#22"/>
	<trip id="motorcycle166" type="motorcycle_motorcycle" depart="760.00" departLane="best" from="29031845#3" to="-933771097"/>
	<trip id="motorcycle167" type="motorcycle_motorcycle" depart="770.00" departLane="best" from="-370279149#2" to="370816862#0"/>
	<trip id="motorcycle168" type="motorcycle_motorcycle" depart="780.00" departLane="best" from="913051036" to="225539574#0"/>
	<trip id="motorcycle169" type="motorcycle_motorcycle" depart="790.00" departLane="best" from="-29059424#5" to="769443063#8"/>
	<trip id="motorcycle170" type="motorcycle_motorcycle" depart="800.00" departLane="best" from="-673316317" to="918503350#3"/>
	<trip id="motorcycle171" type="motorcycle_motorcycle" depart="810.00" departLane="best" from="926085784" to="-371293469#3"/>
	<trip id="motorcycle172" type="motorcycle_motorcycle" depart="820.00" departLane="best" from="743149976#3" to="934747432#1"/>
	<trip id="motorcycle173" type="motorcycle_motorcycle" depart="830.00" departLane="best" from="-915800969" to="370674183"/>
	<trip id="motorcycle174" type="motorcycle_motorcycle" depart="840.00" departLane="best" from="29165305#0" to="-915060976#3"/>
	<trip id="motorcycle175" type="motorcycle_motorcycle" depart="850.00" departLane="best" from="-370131912" to="-28937460#3"/>
	<trip id="motorcycle176" type="motorcycle_motorcycle" depart="860.00" departLane="best" from="-918330362" to="370816689#5"/>
	<trip id="motorcycle177" type="motorcycle_motorcycle" depart="870.00" departLane="best" from="370528820#1" to="29165450#0"/>
	<trip id="motorcycle178" type="motorcycle_motorcycle" depart="880.00" departLane="best" from="29031987" to="-921147347"/>
	<trip id="motorcycle179" type="motorcycle_motorcycle" depart="890.00" departLane="best" from="-921310325#0" to="369963775#1"/>
	<trip id="motorcycle180" type="motorcycle_motorcycle" depart="900.00" departLane="best" from="29031895#0" to="922017669#16"/>
	<trip id="motorcycle181" type="motorcycle_motorcycle" depart="910.00" departLane="best" from="-370284242#2" to="370678384#3"/>
	<trip id="motorcycle182" type="motorcycle_motorcycle" depart="920.00" departLane="best" from="-920713998" to="-370674308#4"/>
	<trip id="motorcycle183" type="motorcycle_motorcycle" depart="930.00" departLane="best" from="-924814579" to="370678267#0"/>
	<trip id="motorcycle184" type="motorcycle_motorcycle" depart="940.00" departLane="best" from="920714021" to="-915801124"/>
	<trip id="motorcycle185" type="motorcycle_motorcycle" depart="950.00" departLane="best" from="-371318514#0" to="-921302272"/>
	<trip id="motorcycle186" type="motorcycle_motorcycle" depart="960.00" departLane="best" from="370279109#0" to="-917285322#0"/>
	<trip id="motorcycle187" type="motorcycle_motorcycle" depart="970.00" departLane="best" from="28938166#2" to="-371299788"/>
	<trip id="motorcycle188" type="motorcycle_motorcycle" depart="980.00" departLane="best" from="915473817#0" to="371299922#1"/>
	<trip id="motorcycle189" type="motorcycle_motorcycle" depart="990.00" departLane="best" from="370531880#1" to="921661810"/>
	<trip id="motorcycle190" type="motorcycle_motorcycle" depart="1000.00" departLane="best" from="29557320#9" to="29317534#5"/>
	<trip id="motorcycle191" type="motorcycle_motorcycle" depart="1010.00" departLane="best" from="28938890#2" to="914584327"/>
	<trip id="motorcycle192" type="motorcycle_motorcycle" depart="1020.00" departLane="best" from="-930969043#2" to="-370155044"/>
	<trip id="motorcycle193" type="motorcycle_motorcycle" depart="1030.00" departLane="best" from="921222698#2" to="-29057129#2"/>
	<trip id="motorcycle194" type="motorcycle_motorcycle" depart="1040.00" departLane="best" from="933771102" to="-914129045#0"/>
	<trip id="motorcycle195" type="motorcycle_motorcycle" depart="1050.00" departLane="best" from="933269846#1" to="29708309"/>
	<trip id="motorcycle196" type="motorcycle_motorcycle" depart="1060.00" departLane="best" from="-371068012#3" to="913508418#2"/>
	<trip id="motorcycle197" type="motorcycle_motorcycle" depart="1070.00" departLane="best" from="390196279#1" to="29035968#0"/>
	<trip id="motorcycle198" type="motorcycle_motorcycle" depart="1080.00" departLane="best" from="926179843" to="1273248775#1"/>
	<trip id="motorcycle199" type="motorcycle_motorcycle" depart="1090.00" departLane="best" from="933176305" to="-29878248#3"/>
	<trip id="motorcycle200" type="motorcycle_motorcycle" depart="1100.00" departLane="best" from="-914928504" to="371052000#23"/>
	<trip id="motorcycle201" type="motorcycle_motorcycle" depart="1110.00" departLane="best" from="371299917#18" to="-1202237702#0"/>
	<trip id="motorcycle202" type="motorcycle_motorcycle" depart="1120.00" departLane="best" from="932544565" to="29031708#1"/>
	<trip id="motorcycle203" type="motorcycle_motorcycle" depart="1130.00" departLane="best" from="-934206802#2" to="227398483#3"/>
	<trip id="motorcycle204" type="motorcycle_motorcycle" depart="1140.00" departLane="best" from="370816781" to="370816924"/>
	<trip id="motorcycle205" type="motorcycle_motorcycle" depart="1150.00" departLane="best" from="-370531699#0" to="932778351"/>
	<trip id="motorcycle206" type="motorcycle_motorcycle" depart="1160.00" departLane="best" from="371317888#5" to="-225881068#1"/>
	<trip id="motorcycle207" type="motorcycle_motorcycle" depart="1170.00" departLane="best" from="-931269347" to="29031428#2"/>
	<trip id="motorcycle208" type="motorcycle_motorcycle" depart="1180.00" departLane="best" from="369798599#0" to="370849791#1"/>
	<trip id="motorcycle209" type="motorcycle_motorcycle" depart="1190.00" departLane="best" from="-29709411#1" to="-921310314#0"/>
	<trip id="motorcycle210" type="motorcycle_motorcycle" depart="1200.00" departLane="best" from="29548602#2" to="-29561748#1"/>
	<trip id="motorcycle211" type="motorcycle_motorcycle" depart="1210.00" departLane="best" from="-1272652573#0" to="924035919"/>
	<trip id="motorcycle212" type="motorcycle_motorcycle" depart="1220.00" departLane="best" from="743142916#1" to="370678249"/>
	<trip id="motorcycle213" type="motorcycle_motorcycle" depart="1230.00" departLane="best" from="370694582#0" to="920713970"/>
	<trip id="motorcycle214" type="motorcycle_motorcycle" depart="1240.00" departLane="best" from="933216705#7" to="-371318480#2"/>
	<trip id="motorcycle215" type="motorcycle_motorcycle" depart="1250.00" departLane="best" from="-29878097#1" to="-371077560#5"/>
	<trip id="motorcycle216" type="motorcycle_motorcycle" depart="1260.00" departLane="best" from="915001622" to="370818020#0"/>
	<trip id="motorcycle217" type="motorcycle_motorcycle" depart="1270.00" departLane="best" from="370845494#3" to="370129516#0"/>
	<trip id="motorcycle218" type="motorcycle_motorcycle" depart="1280.00" departLane="best" from="914588120#0" to="926161931#7"/>
	<trip id="motorcycle219" type="motorcycle_motorcycle" depart="1290.00" departLane="best" from="914592076#1" to="492169581#0"/>
	<trip id="motorcycle220" type="motorcycle_motorcycle" depart="1300.00" departLane="best" from="-918648172" to="-924988500#1"/>
	<trip id="motorcycle221" type="motorcycle_motorcycle" depart="1310.00" departLane="best" from="-370823462#5" to="925174751#1"/>
	<trip id="motorcycle222" type="motorcycle_motorcycle" depart="1320.00" departLane="best" from="-370155139#0" to="-29077427#1"/>
	<trip id="motorcycle223" type="motorcycle_motorcycle" depart="1330.00" departLane="best" from="926534014" to="29056724#2"/>
	<trip id="motorcycle224" type="motorcycle_motorcycle" depart="1340.00" departLane="best" from="-370282116#6" to="-957441385#1"/>
	<trip id="motorcycle225" type="motorcycle_motorcycle" depart="1350.00" departLane="best" from="1069477790" to="926534058#16"/>
	<trip id="motorcycle226" type="motorcycle_motorcycle" depart="1360.00" departLane="best" from="915060869#15" to="921661818#1"/>
	<trip id="motorcycle227" type="motorcycle_motorcycle" depart="1370.00" departLane="best" from="-370844477#0" to="-921302273#1"/>
	<trip id="motorcycle228" type="motorcycle_motorcycle" depart="1380.00" departLane="best" from="-370849209#1" to="-915046432"/>
	<trip id="motorcycle229" type="motorcycle_motorcycle" depart="1390.00" departLane="best" from="361899431#7" to="-370844210#4"/>
	<trip id="motorcycle230" type="motorcycle_motorcycle" depart="1400.00" departLane="best" from="-29311969#3" to="295573442#17"/>
	<trip id="motorcycle231" type="motorcycle_motorcycle" depart="1410.00" departLane="best" from="371317882#2" to="-922525463#2"/>
	<trip id="motorcycle232" type="motorcycle_motorcycle" depart="1420.00" departLane="best" from="-371308459#0" to="-29031608#2"/>
	<trip id="motorcycle233" type="motorcycle_motorcycle" depart="1430.00" departLane="best" from="-922525459#1" to="-492169571#1"/>
	<trip id="motorcycle234" type="motorcycle_motorcycle" depart="1440.00" departLane="best" from="-370816907" to="-371318119"/>
	<trip id="motorcycle235" type="motorcycle_motorcycle" depart="1450.00" departLane="best" from="-930969081" to="-29058666#0"/>
	<trip id="motorcycle236" type="motorcycle_motorcycle" depart="1460.00" departLane="best" from="934206815#1" to="-917800512"/>