<routes xmlns:xsi="http://www.w3.org/2001/XMLSchema-instance" xsi:noNamespaceSchemaLocation="http://sumo.dlr.de/xsd/routes_file.xsd">
	<vType id="motorcycle_motorcycle" vClass="motorcycle"/>
	<trip id="motorcycle0" type="motorcycle_motorcycle" depart="0.00" departLane="best" from="-29875672#0" to="29873772#5"/>
	<trip id="motorcycle1" type="motorcycle_motorcycle" depart="1.00" departLane="best" from="-29858987#0" to="29895497#24"/>
	<trip id="motorcycle2" type="motorcycle_motorcycle" depart="2.00" departLane="best" from="29871199" to="-29895497#24"/>
	<trip id="motorcycle3" type="motorcycle_motorcycle" depart="3.00" departLane="best" from="921989977#2" to="-29896138"/>
	<trip id="motorcycle4" type="motorcycle_motorcycle" depart="4.00" departLane="best" from="29858436#0" to="29896138"/>
	<trip id="motorcycle5" type="motorcycle_motorcycle" depart="5.00" departLane="best" from="918680935" to="-29895497#23"/>
	<trip id="motorcycle6" type="motorcycle_motorcycle" depart="6.00" departLane="best" from="29872403#0" to="-29896138"/>
	<trip id="motorcycle7" type="motorcycle_motorcycle" depart="7.00" departLane="best" from="-29719803#3" to="29896138"/>
	<trip id="motorcycle8" type="motorcycle_motorcycle" depart="8.00" departLane="best" from="1305387248" to="-29895497#24"/>
	<trip id="motorcycle9" type="motorcycle_motorcycle" depart="9.00" departLane="best" from="29713820#8" to="-29896138"/>
	<trip id="motorcycle10" type="motorcycle_motorcycle" depart="10.00" departLane="best" from="-29876546#63" to="-29896138"/>
	<trip id="motorcycle11" type="motorcycle_motorcycle" depart="11.00" departLane="best" from="921989943#1" to="29895497#23"/>
	<trip id="motorcycle12" type="motorcycle_motorcycle" depart="12.00" departLane="best" from="-29855261#2" to="-29895497#24"/>
	<trip id="motorcycle13" type="motorcycle_motorcycle" depart="13.00" departLane="best" from="-29869465" to="-29895497#24"/>
	<trip id="motorcycle14" type="motorcycle_motorcycle" depart="14.00" departLane="best" from="-932761298" to="29896138"/>
	<trip id="motorcycle15" type="motorcycle_motorcycle" depart="15.00" departLane="best" from="29720405#1" to="-29895497#24"/>
	<trip id="motorcycle16" type="motorcycle_motorcycle" depart="16.00" departLane="best" from="-371051987#4" to="-29896138"/>
	<trip id="motorcycle17" type="motorcycle_motorcycle" depart="17.00" departLane="best" from="29873203" to="-29896138"/>
	<trip id="motorcycle18" type="motorcycle_motorcycle" depart="18.00" departLane="best" from="29857947#2" to="29896138"/>
	<trip id="motorcycle19" type="motorcycle_motorcycle" depart="19.00" departLane="best" from="-921990002#1" to="29896138"/>
	<trip id="motorcycle20" type="motorcycle_motorcycle" depart="20.00" departLane="best" from="29855502#1" to="29895497#23"/>
	<trip id="motorcycle21" type="motorcycle_motorcycle" depart="21.00" departLane="best" from="921989977#2" to="-29895497#23"/>
	<trip id="motorcycle22" type="motorcycle_motorcycle" depart="22.00" departLane="best" from="371052000#13" to="-29895497#24"/>
	<trip id="motorcycle23" type="motorcycle_motorcycle" depart="23.00" departLane="best" from="-371051968" to="29896138"/>
	<trip id="motorcycle24" type="motorcycle_motorcycle" depart="24.00" departLane="best" from="29859196" to="-29896138"/>
	<trip id="motorcycle25" type="motorcycle_motorcycle" depart="25.00" departLane="best" from="29861194#0" to="29896138"/>
	<trip id="motorcycle26" type="motorcycle_motorcycle" depart="26.00" departLane="best" from="-371052000#19" to="29895497#24"/>
	<trip id="motorcycle27" type="motorcycle_motorcycle" depart="27.00" departLane="best" from="921930226#7" to="29895497#23"/>
	<trip id="motorcycle28" type="motorcycle_motorcycle" depart="28.00" departLane="best" from="29869498#4" to="-29895497#24"/>
	<trip id="motorcycle29" type="motorcycle_motorcycle" depart="29.00" departLane="best" from="29873159" to="-29895497#24"/>
	<trip id="motorcycle30" type="motorcycle_motorcycle" depart="30.00" departLane="best" from="757101430#5" to="29895497#23"/>
	<trip id="motorcycle31" type="motorcycle_motorcycle" depart="31.00" departLane="best" from="759565133#2" to="29896138"/>
	<trip id="motorcycle32" type="motorcycle_motorcycle" depart="32.00" departLane="best" from="371052004#2" to="-29896138"/>
	<trip id="motorcycle33" type="motorcycle_motorcycle" depart="33.00" departLane="best" from="29854369#1" to="29896138"/>
	<trip id="motorcycle34" type="motorcycle_motorcycle" depart="34.00" departLane="best" from="29873138#5" to="-29895497#24"/>
	<trip id="motorcycle35" type="motorcycle_motorcycle" depart="35.00" departLane="best" from="29719836#1" to="29895497#23"/>
	<trip id="motorcycle36" type="motorcycle_motorcycle" depart="36.00" departLane="best" from="-29855122" to="-29895497#24"/>
	<trip id="motorcycle37" type="motorcycle_motorcycle" depart="37.00" departLane="best" from="29871899#3" to="-29896138"/>
	<trip id="motorcycle38" type="motorcycle_motorcycle" depart="38.00" departLane="best" from="-29719743" to="-29896138"/>
	<trip id="motorcycle39" type="motorcycle_motorcycle" depart="39.00" departLane="best" from="371051984" to="-29895497#24"/>
	<trip id="motorcycle40" type="motorcycle_motorcycle" depart="40.00" departLane="best" from="29871400" to="-29895497#24"/>
	<trip id="motorcycle41" type="motorcycle_motorcycle" depart="41.00" departLane="best" from="-371051983" to="29895497#23"/>
	<trip id="motorcycle42" type="motorcycle_motorcycle" depart="42.00" departLane="best" from="371051994#1" to="29895497#23"/>
	<trip id="motorcycle43" type="motorcycle_motorcycle" depart="43.00" departLane="best" from="-921989993" to="29896138"/>
	<trip id="motorcycle44" type="motorcycle_motorcycle" depart="44.00" departLane="best" from="757102090#2" to="29896138"/>
	<trip id="motorcycle45" type="motorcycle_motorcycle" depart="45.00" departLane="best" from="-757102098#1" to="29895497#24"/>
	<trip id="motorcycle46" type="motorcycle_motorcycle" depart="46.00" departLane="best" from="921989939#1" to="29895497#23"/>
	<trip id="motorcycle47" type="motorcycle_motorcycle" depart="47.00" departLane="best" from="29858987#1" to="29895497#23"/>
	<trip id="motorcycle48" type="motorcycle_motorcycle" depart="48.00" departLane="best" from="29873157#3" to="-29895497#24"/>
	<trip id="motorcycle49" type="motorcycle_motorcycle" depart="49.00" departLane="best" from="-29857735#3" to="29895497#24"/>
	<trip id="motorcycle50" type="motorcycle_motorcycle" depart="50.00" departLane="best" from="-29854316#0" to="29895497#23"/>
	<trip id="motorcycle51" type="motorcycle_motorcycle" depart="51.00" departLane="best" from="29854347#1" to="29895497#23"/>
	<trip id="motorcycle52" type="motorcycle_motorcycle" depart="52.00" departLane="best" from="-29719928#0" to="29896138"/>
	<trip id="motorcycle53" type="motorcycle_motorcycle" depart="53.00" departLane="best" from="29873188#2" to="29896138"/>
	<trip id="motorcycle54" type="motorcycle_motorcycle" depart="54.00" departLane="best" from="29871357" to="-29895497#23"/>
	<trip id="motorcycle55" type="motorcycle_motorcycle" depart="55.00" departLane="best" from="921930226#9" to="29895497#23"/>
	<trip id="motorcycle56" type="motorcycle_motorcycle" depart="56.00" departLane="best" from="-29853864" to="-29896138"/>
	<trip id="motorcycle57" type="motorcycle_motorcycle" depart="57.00" departLane="best" from="29873134#9" to="29895497#23"/>
	<trip id="motorcycle58" type="motorcycle_motorcycle" depart="58.00" departLane="best" from="-29871225" to="29895497#24"/>
	<trip id="motorcycle59" type="motorcycle_motorcycle" depart="59.00" departLane="best" from="29862359#0" to="29895497#24"/>
	<trip id="motorcycle60" type="motorcycle_motorcycle" depart="60.00" departLane="best" from="-29853840#0" to="29895497#23"/>
	<trip id="motorcycle61" type="motorcycle_motorcycle" depart="61.00" departLane="best" from="-29853818#1" to="29896138"/>
	<trip id="motorcycle62" type="motorcycle_motorcycle" depart="62.00" departLane="best" from="918680916#2" to="29895497#23"/>
	<trip id="motorcycle63" type="motorcycle_motorcycle" depart="63.00" departLane="best" from="-29855502#1" to="-29895497#23"/>
	<trip id="motorcycle64" type="motorcycle_motorcycle" depart="64.00" departLane="best" from="29720479#0" to="29895497#23"/>
	<trip id="motorcycle65" type="motorcycle_motorcycle" depart="65.00" departLane="best" from="-29857761#2" to="-29895497#24"/>
	<trip id="motorcycle66" type="motorcycle_motorcycle" depart="66.00" departLane="best" from="-29855261#6" to="-29896138"/>
	<trip id="motorcycle67" type="motorcycle_motorcycle" depart="67.00" departLane="best" from="-932761300" to="-29895497#23"/>
	<trip id="motorcycle68" type="motorcycle_motorcycle" depart="68.00" departLane="best" from="-29854711#2" to="-29895497#24"/>
	<trip id="motorcycle69" type="motorcycle_motorcycle" depart="69.00" departLane="best" from="29871250" to="-29895497#23"/>
	<trip id="motorcycle70" type="motorcycle_motorcycle" depart="70.00" departLane="best" from="932761288#4" to="29896138"/>
	<trip id="motorcycle71" type="motorcycle_motorcycle" depart="71.00" departLane="best" from="-29033330#2" to="-29895497#24"/>
	<trip id="motorcycle72" type="motorcycle_motorcycle" depart="72.00" departLane="best" from="921930226#11" to="-29895497#24"/>
	<trip id="motorcycle73" type="motorcycle_motorcycle" depart="73.00" departLane="best" from="29720337#2" to="29895497#24"/>
	<trip id="motorcycle74" type="motorcycle_motorcycle" depart="74.00" departLane="best" from="29873212#2" to="-29895497#23"/>
	<trip id="motorcycle75" type="motorcycle_motorcycle" depart="75.00" departLane="best" from="29719803#4" to="29895497#23"/>
	<trip id="motorcycle76" type="motorcycle_motorcycle" depart="76.00" departLane="best" from="-29854622#2" to="-29895497#23"/>
	<trip id="motorcycle77" type="motorcycle_motorcycle" depart="77.00" departLane="best" from="921930226#18" to="-29895497#24"/>
	<trip id="motorcycle78" type="motorcycle_motorcycle" depart="78.00" departLane="best" from="29720337#0" to="-29896138"/>
	<trip id="motorcycle79" type="motorcycle_motorcycle" depart="79.00" departLane="best" from="-933269854" to="-29895497#23"/>
	<trip id="motorcycle80" type="motorcycle_motorcycle" depart="80.00" departLane="best" from="-371051978" to="-29895497#24"/>
	<trip id="motorcycle81" type="motorcycle_motorcycle" depart="81.00" departLane="best" from="-371052000#25" to="29895497#23"/>
	<trip id="motorcycle82" type="motorcycle_motorcycle" depart="82.00" departLane="best" from="757102089#12" to="29895497#23"/>
	<trip id="motorcycle83" type="motorcycle_motorcycle" depart="83.00" departLane="best" from="-921930212" to="-29896138"/>
	<trip id="motorcycle84" type="motorcycle_motorcycle" depart="84.00" departLane="best" from="29871625#0" to="-29896138"/>
	<trip id="motorcycle85" type="motorcycle_motorcycle" depart="85.00" departLane="best" from="29854385" to="-29895497#24"/>
	<trip id="motorcycle86" type="motorcycle_motorcycle" depart="86.00" departLane="best" from="-29857373#0" to="-29895497#23"/>
	<trip id="motorcycle87" type="motorcycle_motorcycle" depart="87.00" departLane="best" from="371051968" to="-29895497#23"/>
	<trip id="motorcycle88" type="motorcycle_motorcycle" depart="88.00" departLane="best" from="-29870789" to="29896138"/>
	<trip id="motorcycle89" type="motorcycle_motorcycle" depart="89.00" departLane="best" from="29857573#1" to="29896138"/>
	<trip id="motorcycle90" type="motorcycle_motorcycle" depart="90.00" departLane="best" from="29854776#1" to="29895497#23"/>
	<trip id="motorcycle91" type="motorcycle_motorcycle" depart="91.00" departLane="best" from="-29869753" to="29895497#23"/>
	<trip id="motorcycle92" type="motorcycle_motorcycle" depart="92.00" departLane="best" from="-29853872" to="-29895497#23"/>
	<trip id="motorcycle93" type="motorcycle_motorcycle" depart="93.00" departLane="best" from="-29855502#1" to="29895497#23"/>
	<trip id="motorcycle94" type="motorcycle_motorcycle" depart="94.00" departLane="best" from="29859173#2" to="-29895497#23"/>
	<trip id="motorcycle95" type="motorcycle_motorcycle" depart="95.00" departLane="best" from="-29853953" to="29895497#24"/>
	<trip id="motorcycle96" type="motorcycle_motorcycle" depart="96.00" departLane="best" from="-29871492#1" to="29895497#24"/>
	<trip id="motorcycle97" type="motorcycle_motorcycle" depart="97.00" departLane="best" from="29873157#2" to="29896138"/>
	<trip id="motorcycle98" type="motorcycle_motorcycle" depart="98.00" departLane="best" from="29858493#3" to="29895497#24"/>
	<trip id="motorcycle99" type="motorcycle_motorcycle" depart="99.00" departLane="best" from="371051961" to="-29895497#23"/>
	<trip id="motorcycle100" type="motorcycle_motorcycle" depart="100.00" departLane="best" from="-29856268" to="29895497#23"/>
</routes>
