<?xml version="1.0" encoding="UTF-8"?>

<!-- generated on 2024-12-11 11:46:56 by Eclipse SUMO netconvert Version 1.21.0
<netconvertConfiguration xmlns:xsi="http://www.w3.org/2001/XMLSchema-instance" xsi:noNamespaceSchemaLocation="http://sumo.dlr.de/xsd/netconvertConfiguration.xsd">

    <input>
        <type-files value="${SUMO_HOME}\data\typemap\osmNetconvert.typ.xml,${SUMO_HOME}\data\typemap\osmNetconvertUrbanDe.typ.xml,${SUMO_HOME}\data\typemap\osmNetconvertPedestrians.typ.xml,${SUMO_HOME}\data\typemap\osmNetconvertAerialway.typ.xml"/>
        <osm-files value="osm_bbox.osm.xml.gz"/>
    </input>

    <output>
        <output-file value="osm.net.xml.gz"/>
        <output.street-names value="true"/>
        <output.original-names value="true"/>
        <ptstop-output value="osm_stops.add.xml"/>
        <ptline-output value="osm_ptlines.xml"/>
    </output>

    <projection>
        <proj.utm value="true"/>
    </projection>

    <processing>
        <geometry.remove value="true"/>
        <roundabouts.guess value="true"/>
        <lefthand value="true"/>
    </processing>

    <tls_building>
        <tls.discard-simple value="true"/>
        <tls.join value="true"/>
        <tls.guess-signals value="true"/>
        <tls.default-type value="actuated"/>
    </tls_building>

    <ramp_guessing>
        <ramps.guess value="true"/>
    </ramp_guessing>

    <junctions>
        <junctions.join value="true"/>
        <junctions.corner-detail value="5"/>
    </junctions>

    <pedestrian>
        <crossings.guess value="true"/>
    </pedestrian>

    <railway>
        <railway.topology.repair value="true"/>
    </railway>

    <formats>
        <osm.sidewalks value="true"/>
    </formats>

</netconvertConfiguration>
-->

<additional xmlns:xsi="http://www.w3.org/2001/XMLSchema-instance" xsi:noNamespaceSchemaLocation="http://sumo.dlr.de/xsd/additional_file.xsd">
    <busStop id="-7553684175" name="Vadodara Junction" lane="-914022134#2_0" startPos="305.94" endPos="505.94" friendlyPos="true">
        <access lane="-794287985#1_0" pos="54.98" length="108.32" friendlyPos="1"/>
        <access lane="794287985#1_0" pos="113.18" length="113.33" friendlyPos="1"/>
        <access lane="91676194_0" pos="147.27" length="41.61" friendlyPos="1"/>
        <access lane="91676200_0" pos="28.97" length="190.91" friendlyPos="1"/>
        <access lane="932366362#1_0" pos="114.85" length="204.70" friendlyPos="1"/>
    </busStop>
    <busStop id="-8490537129" name="Vadodara Junction" lane="-966956030_0" startPos="438.19" endPos="638.19" friendlyPos="true">
        <access lane="-794287985#1_0" pos="54.98" length="107.73" friendlyPos="1"/>
        <access lane="-932366362#1_0" pos="0.00" length="157.73" friendlyPos="1"/>
        <access lane="794287985#1_0" pos="113.18" length="113.65" friendlyPos="1"/>
        <access lane="91676194_0" pos="128.65" length="29.09" friendlyPos="1"/>
        <access lane="932366362#1_0" pos="114.85" length="152.96" friendlyPos="1"/>
    </busStop>
    <busStop id="-8490546712" name="Vadodara Junction" lane="-966956028_0" startPos="409.62" endPos="609.62" friendlyPos="true">
        <access lane="-794287985#1_0" pos="54.98" length="103.38" friendlyPos="1"/>
        <access lane="-932366362#1_0" pos="0.00" length="151.84" friendlyPos="1"/>
        <access lane="794287985#1_0" pos="113.18" length="109.27" friendlyPos="1"/>
        <access lane="91676194_0" pos="124.65" length="29.17" friendlyPos="1"/>
        <access lane="932366362#1_0" pos="114.85" length="147.07" friendlyPos="1"/>
    </busStop>
    <busStop id="12164272865" name="Vadodara Junction" lane="914025059#2_0" startPos="122.95" endPos="322.95" friendlyPos="true">
        <access lane="-794287985#1_0" pos="58.92" length="143.63" friendlyPos="1"/>
        <access lane="794287985#0_0" pos="1.67" length="241.26" friendlyPos="1"/>
        <access lane="794287985#1_0" pos="111.61" length="148.43" friendlyPos="1"/>
        <access lane="91676194_0" pos="170.59" length="54.19" friendlyPos="1"/>
        <access lane="91676200_0" pos="52.60" length="179.75" friendlyPos="1"/>
    </busStop>
    <busStop id="12168540655" lane="715460214#1_0" startPos="359.28" endPos="559.28" friendlyPos="true">
        <access lane="-371447541#1_0" pos="0.00" length="58.41" friendlyPos="1"/>
        <access lane="225975544_0" pos="0.00" length="61.77" friendlyPos="1"/>
        <access lane="225975547_0" pos="13.09" length="26.58" friendlyPos="1"/>
        <access lane="225975553_0" pos="38.24" length="46.93" friendlyPos="1"/>
        <access lane="371447541#1_0" pos="51.98" length="57.21" friendlyPos="1"/>
    </busStop>
    <busStop id="2360507035" name="Vadodara Junction" lane="227398463#4_0" startPos="269.27" endPos="469.27" friendlyPos="true">
        <access lane="-794287985#1_0" pos="54.98" length="123.67" friendlyPos="1"/>
        <access lane="794287985#1_0" pos="113.18" length="128.69" friendlyPos="1"/>
        <access lane="91676194_0" pos="157.51" length="41.26" friendlyPos="1"/>
        <access lane="91676200_0" pos="39.18" length="191.88" friendlyPos="1"/>
        <access lane="932366362#1_0" pos="114.85" length="218.00" friendlyPos="1"/>
    </busStop>
    <busStop id="5590109026" name="Vadodara Junction" lane="914022131#1_0" startPos="87.69" endPos="287.69" friendlyPos="true">
        <access lane="-794287985#1_0" pos="58.84" length="152.09" friendlyPos="1"/>
        <access lane="794287985#0_0" pos="1.67" length="247.64" friendlyPos="1"/>
        <access lane="794287985#1_0" pos="111.69" length="156.89" friendlyPos="1"/>
        <access lane="91676194_0" pos="176.23" length="54.42" friendlyPos="1"/>
        <access lane="91676200_0" pos="58.24" length="179.87" friendlyPos="1"/>
    </busStop>
    <busStop id="6696332553" name="Pratapnagar" lane="985286801#2_0" startPos="411.32" endPos="611.32" friendlyPos="true">
        <access lane="370279150_0" pos="15.63" length="28.99" friendlyPos="1"/>
        <access lane="370279152#0_0" pos="19.42" length="19.41" friendlyPos="1"/>
        <access lane="370279152#1_0" pos="5.16" length="12.01" friendlyPos="1"/>
        <access lane="370279153_0" pos="30.68" length="47.79" friendlyPos="1"/>
        <access lane="985286796_0" pos="19.18" length="19.51" friendlyPos="1"/>
    </busStop>
    <busStop id="7553684175" name="Vadodara Junction" lane="914022134#2_0" startPos="298.60" endPos="498.60" friendlyPos="true" lines="12432">
        <access lane="-794287985#1_0" pos="54.98" length="108.32" friendlyPos="1"/>
        <access lane="794287985#1_0" pos="113.18" length="113.33" friendlyPos="1"/>
        <access lane="91676194_0" pos="147.27" length="41.61" friendlyPos="1"/>
        <access lane="91676200_0" pos="28.97" length="190.91" friendlyPos="1"/>
        <access lane="932366362#1_0" pos="114.85" length="204.70" friendlyPos="1"/>
    </busStop>
    <busStop id="8490537129" name="Vadodara Junction" lane="966956030_0" startPos="292.48" endPos="492.48" friendlyPos="true" lines="12951 12431 12953 22413">
        <access lane="-794287985#1_0" pos="54.98" length="107.73" friendlyPos="1"/>
        <access lane="-932366362#1_0" pos="0.00" length="157.73" friendlyPos="1"/>
        <access lane="794287985#1_0" pos="113.18" length="113.65" friendlyPos="1"/>
        <access lane="91676194_0" pos="128.65" length="29.09" friendlyPos="1"/>
        <access lane="932366362#1_0" pos="114.85" length="152.96" friendlyPos="1"/>
    </busStop>
    <busStop id="8490546712" name="Vadodara Junction" lane="966956028_0" startPos="178.99" endPos="378.99" friendlyPos="true">
        <access lane="-794287985#1_0" pos="54.98" length="103.38" friendlyPos="1"/>
        <access lane="-932366362#1_0" pos="0.00" length="151.84" friendlyPos="1"/>
        <access lane="794287985#1_0" pos="113.18" length="109.27" friendlyPos="1"/>
        <access lane="91676194_0" pos="124.65" length="29.17" friendlyPos="1"/>
        <access lane="932366362#1_0" pos="114.85" length="147.07" friendlyPos="1"/>
    </busStop>
    <busStop id="9104290326" name="Pratapnagar" lane="262073561#5_0" startPos="353.87" endPos="553.87" friendlyPos="true">
        <access lane="370279152#0_0" pos="16.29" length="11.71" friendlyPos="1"/>
        <access lane="370279152#1_0" pos="0.00" length="16.91" friendlyPos="1"/>
        <access lane="370279154_0" pos="6.52" length="43.02" friendlyPos="1"/>
        <access lane="370279155_0" pos="12.55" length="29.12" friendlyPos="1"/>
        <access lane="985286796_0" pos="19.18" length="17.62" friendlyPos="1"/>
    </busStop>
</additional>
