<?xml version="1.0" encoding="UTF-8"?>

<!-- generated on 2024-12-11 11:47:00.549127 by $Id: ptlines2flows.py v1_3_1+0313-ccb31df3eb jakob.erdmann@dlr.de 2019-09-02 13:26:32 +0200 $ v1_21_0+0000-d7b3b481c43
<configuration>
    <net-file value="C:\Users\Kisha\Sumo\2024-12-11-11-46-08\osm.net.xml.gz"/>
    <ptlines-file value="C:\Users\Kisha\Sumo\2024-12-11-11-46-08\osm_ptlines.xml"/>
    <ptstops-file value="C:\Users\Kisha\Sumo\2024-12-11-11-46-08\osm_stops.add.xml"/>
    <output-file value="C:\Users\Kisha\Sumo\2024-12-11-11-46-08\osm_pt.rou.xml"/>
    <stopinfos-file value="C:\Users\Kisha\Sumo\2024-12-11-11-46-08\stopinfos.xml"/>
    <routes-file value="C:\Users\Kisha\Sumo\2024-12-11-11-46-08\vehroutes.xml"/>
    <trips-file value="C:\Users\Kisha\Sumo\2024-12-11-11-46-08\trips.trips.xml"/>
    <min-stops value="0"/>
    <extend-to-fringe value="True"/>
    <random-begin value="True"/>
    <seed value="42"/>
    <ignore-errors value="True"/>
    <vtype-prefix value="pt_"/>
    <verbose value="True"/>
</configuration>
-->

<routes xmlns:xsi="http://www.w3.org/2001/XMLSchema-instance" xsi:noNamespaceSchemaLocation="http://sumo.dlr.de/xsd/routes_file.xsd">
    <vType id="pt_bus" vClass="bus" speedFactor="0.95"/>
    <vType id="pt_tram" vClass="tram" speedFactor="1.0"/>
    <vType id="pt_train" vClass="rail"/>
    <vType id="pt_subway" vClass="subway"/>
    <vType id="pt_light_rail" vClass="rail_urban"/>
    <vType id="pt_monorail" vClass="rail_urban"/>
    <vType id="pt_trolleybus" vClass="bus" speedFactor="0.95"/>
    <vType id="pt_minibus" vClass="bus" speedFactor="0.95"/>
    <vType id="pt_share_taxi" vClass="taxi" speedFactor="0.95"/>
    <vType id="pt_aerialway" vClass="cable_car" length="2.5" width="2" personCapacity="4"/>
    <vType id="pt_ferry" vClass="ship"/>
    <trip id="0_train_12951:0" type="pt_train" depart="15.0" departLane="best" from="1154036267" to="29548913#3">
        <stop busStop="8490537129" duration="30"/>  <!-- Vadodara Junction -->
    </trip>
    <trip id="1_train_12952:0" type="pt_train" depart="52.0" departLane="best" from="966956028" to="966956028">
        <stop busStop="8490546712" duration="30"/>  <!-- Vadodara Junction -->
    </trip>
    <trip id="2_train_12431:0" type="pt_train" depart="133.0" departLane="best" from="1154036267" to="29548913#3">
        <stop busStop="8490537129" duration="30"/>  <!-- Vadodara Junction -->
    </trip>
    <trip id="3_train_12432:0" type="pt_train" depart="165.0" departLane="best" from="28939050#0" to="29137959#9">
        <stop busStop="7553684175" duration="30"/>  <!-- Vadodara Junction -->
    </trip>
    <trip id="4_train_12954:0" type="pt_train" depart="383.0" departLane="best" from="966956028" to="966956028">
        <stop busStop="8490546712" duration="30"/>  <!-- Vadodara Junction -->
    </trip>
    <trip id="5_train_12953:0" type="pt_train" depart="406.0" departLane="best" from="1154036267" to="29548913#3">
        <stop busStop="8490537129" duration="30"/>  <!-- Vadodara Junction -->
    </trip>
    <trip id="6_train_22413:0" type="pt_train" depart="441.0" departLane="best" from="1154036267" to="29548913#3">
        <stop busStop="8490537129" duration="30"/>  <!-- Vadodara Junction -->
    </trip>
    <trip id="7_train_22414:0" type="pt_train" depart="535.0" departLane="best" from="966956030" to="966956030">
        <stop busStop="8490537129" duration="30"/>  <!-- Vadodara Junction -->
    </trip>
</routes>
